/*---------------------------------------------------------------------------*\
| =========                 |                                                 |
| \\      /  F ield         | OpenFOAM: The Open Source CFD Toolbox           |
|  \\    /   O peration     | Version:  plus                                  |
|   \\  /    A nd           | Web:      www.OpenFOAM.com                      |
|    \\/     M anipulation  |                                                 |
\*---------------------------------------------------------------------------*/
Build  : plus-6355554d1aee
Arch   : "LSB;label=32;scalar=64"
Exec   : interFoamSrcWCI -parallel
Date   : Dec 05 2017
Time   : 14:46:19
Host   : "stokes"
PID    : 22263
Case   : /home/pal/OpenFOAM/pal-plus/bin/impulsewavecurrent/TestCases/WavesWithCyclic/WithVerticalBeach
nProcs : 3
Slaves : 
2
(
"stokes.22264"
"stokes.22265"
)

Pstream initialized with:
    floatTransfer      : 0
    nProcsSimpleSum    : 0
    commsType          : nonBlocking
    polling iterations : 0
sigFpe : Enabling floating point exception trapping (FOAM_SIGFPE).
fileModificationChecking : Monitoring run-time modified files using timeStampMaster (fileModificationSkew 10)
allowSystemOperations : Allowing user-supplied system call operations

// * * * * * * * * * * * * * * * * * * * * * * * * * * * * * * * * * * * * * //
Create time

--> FOAM Warning : 
    From function void* Foam::dlOpen(const Foam::fileName&, bool)
    in file POSIX.C at line 1321
    dlopen error : libwavesampling.so: cannot open shared object file: No such file or directory
--> FOAM Warning : 
    From function bool Foam::dlLibraryTable::open(const Foam::fileName&, bool)
    in file db/dynamicLibrary/dlLibraryTable/dlLibraryTable.C at line 101
    could not load "libwavesampling.so"
--> FOAM Warning : 
    From function virtual void Foam::Time::readDict()
    in file db/Time/TimeIO.C at line 358
    Reading "/home/pal/OpenFOAM/pal-plus/bin/impulsewavecurrent/TestCases/WavesWithCyclic/WithVerticalBeach/system/controlDict" at line 18
    Selecting compressed binary is inefficient and ineffective, resetting to uncompressed binary
Create mesh for time = 0


PIMPLE: Operating solver in PISO mode

Reading field p_rgh

Reading field U

Reading/calculating face flux field phi

Reading field sand

Reading field Uana

Reading transportProperties

Selecting incompressible transport model Newtonian
Selecting incompressible transport model Newtonian
Reading field relax

Selecting turbulence model type laminar
Selecting laminar stress model Stokes

Reading g

Reading hRef
Calculating field g.h

No MRF models present

Writing 912 cells to cellSet relaxCells
No finite volume options present

GAMG:  Solving for pcorr, Initial residual = 0, Final residual = 0, No Iterations 0
time step continuity errors : sum local = 0, global = 0, cumulative = 0
Courant Number mean: 0 max: 0

Starting time loop

Courant Number mean: 0 max: 0
Interface Courant Number mean: 0 max: 0
deltaT = 0.00120482
Time = 0.00120482

PIMPLE: iteration 1
MULES: Solving for alpha.water
Phase-1 volume fraction = 0.694444  Min(alpha.water) = 0  Max(alpha.water) = 1
MULES: Solving for alpha.water
Phase-1 volume fraction = 0.694444  Min(alpha.water) = 0  Max(alpha.water) = 1
MULES: Solving for alpha.water
Phase-1 volume fraction = 0.694444  Min(alpha.water) = 0  Max(alpha.water) = 1
GAMG:  Solving for p_rgh, Initial residual = 1, Final residual = 0.00107648, No Iterations 1
time step continuity errors : sum local = 0.00386855, global = -0.000381487, cumulative = -0.000381487
GAMG:  Solving for p_rgh, Initial residual = 0.000417847, Final residual = 1.71349e-06, No Iterations 4
time step continuity errors : sum local = 1.60941e-05, global = -4.67183e-06, cumulative = -0.000386159
GAMG:  Solving for p_rgh, Initial residual = 8.26448e-06, Final residual = 7.67858e-09, No Iterations 9
time step continuity errors : sum local = 7.36101e-08, global = 2.28845e-08, cumulative = -0.000386136
ExecutionTime = 0.27 s  ClockTime = 0 s

Courant Number mean: 1.08096e-06 max: 0.00145669
Interface Courant Number mean: 0 max: 0
deltaT = 0.00145287
Time = 0.00265769

PIMPLE: iteration 1
MULES: Solving for alpha.water
Phase-1 volume fraction = 0.694444  Min(alpha.water) = 0  Max(alpha.water) = 1
MULES: Solving for alpha.water
Phase-1 volume fraction = 0.694444  Min(alpha.water) = 0  Max(alpha.water) = 1
MULES: Solving for alpha.water
Phase-1 volume fraction = 0.694444  Min(alpha.water) = 0  Max(alpha.water) = 1
GAMG:  Solving for p_rgh, Initial residual = 1.31661e-06, Final residual = 1.08429e-08, No Iterations 2
time step continuity errors : sum local = 1.49339e-07, global = 2.78965e-08, cumulative = -0.000386108
GAMG:  Solving for p_rgh, Initial residual = 1.09038e-08, Final residual = 3.20985e-09, No Iterations 1
time step continuity errors : sum local = 4.42093e-08, global = 9.92308e-09, cumulative = -0.000386098
GAMG:  Solving for p_rgh, Initial residual = 3.19289e-09, Final residual = 3.19289e-09, No Iterations 0
time step continuity errors : sum local = 4.3976e-08, global = 9.91548e-09, cumulative = -0.000386088
ExecutionTime = 0.41 s  ClockTime = 0 s

Courant Number mean: 7.31858e-07 max: 0.000685037
Interface Courant Number mean: 0 max: 0
deltaT = 0.00173826
Time = 0.00439595

PIMPLE: iteration 1
MULES: Solving for alpha.water
Phase-1 volume fraction = 0.694444  Min(alpha.water) = 0  Max(alpha.water) = 1
MULES: Solving for alpha.water
Phase-1 volume fraction = 0.694444  Min(alpha.water) = 0  Max(alpha.water) = 1
MULES: Solving for alpha.water
Phase-1 volume fraction = 0.694444  Min(alpha.water) = 0  Max(alpha.water) = 1
GAMG:  Solving for p_rgh, Initial residual = 5.39746e-07, Final residual = 9.42818e-09, No Iterations 1
time step continuity errors : sum local = 1.82982e-07, global = -2.50349e-08, cumulative = -0.000386113
GAMG:  Solving for p_rgh, Initial residual = 9.45984e-09, Final residual = 9.45984e-09, No Iterations 0
time step continuity errors : sum local = 1.83597e-07, global = -2.5053e-08, cumulative = -0.000386138
GAMG:  Solving for p_rgh, Initial residual = 9.46007e-09, Final residual = 9.46007e-09, No Iterations 0
time step continuity errors : sum local = 1.83601e-07, global = -2.5053e-08, cumulative = -0.000386163
ExecutionTime = 0.54 s  ClockTime = 0 s

Courant Number mean: 1.3812e-06 max: 0.00198055
Interface Courant Number mean: 0 max: 0
deltaT = 0.00207835
Time = 0.00647429

PIMPLE: iteration 1
MULES: Solving for alpha.water
Phase-1 volume fraction = 0.694444  Min(alpha.water) = 0  Max(alpha.water) = 1
MULES: Solving for alpha.water
Phase-1 volume fraction = 0.694444  Min(alpha.water) = 0  Max(alpha.water) = 1
MULES: Solving for alpha.water
Phase-1 volume fraction = 0.694444  Min(alpha.water) = 0  Max(alpha.water) = 1
GAMG:  Solving for p_rgh, Initial residual = 1.79042e-06, Final residual = 8.3385e-09, No Iterations 2
time step continuity errors : sum local = 2.27119e-07, global = -5.9988e-08, cumulative = -0.000386223
GAMG:  Solving for p_rgh, Initial residual = 8.40359e-09, Final residual = 8.40359e-09, No Iterations 0
time step continuity errors : sum local = 2.28891e-07, global = -6.0013e-08, cumulative = -0.000386283
GAMG:  Solving for p_rgh, Initial residual = 8.40411e-09, Final residual = 8.40411e-09, No Iterations 0
time step continuity errors : sum local = 2.28905e-07, global = -6.0013e-08, cumulative = -0.000386343
ExecutionTime = 0.68 s  ClockTime = 0 s

Courant Number mean: 3.07908e-06 max: 0.00335087
Interface Courant Number mean: 0 max: 0
deltaT = 0.0024612
Time = 0.0089355

PIMPLE: iteration 1
MULES: Solving for alpha.water
Phase-1 volume fraction = 0.694444  Min(alpha.water) = 0  Max(alpha.water) = 1.00001
MULES: Solving for alpha.water
Phase-1 volume fraction = 0.694444  Min(alpha.water) = 0  Max(alpha.water) = 1.00002
MULES: Solving for alpha.water
Phase-1 volume fraction = 0.694444  Min(alpha.water) = 0  Max(alpha.water) = 1.00003
GAMG:  Solving for p_rgh, Initial residual = 2.4191e-06, Final residual = 1.85034e-08, No Iterations 3
time step continuity errors : sum local = 6.92555e-07, global = -2.29334e-08, cumulative = -0.000386366
GAMG:  Solving for p_rgh, Initial residual = 1.86734e-08, Final residual = 7.52931e-09, No Iterations 1
time step continuity errors : sum local = 2.81811e-07, global = 6.44566e-08, cumulative = -0.000386302
GAMG:  Solving for p_rgh, Initial residual = 7.46949e-09, Final residual = 7.46949e-09, No Iterations 0
time step continuity errors : sum local = 2.79572e-07, global = 6.45192e-08, cumulative = -0.000386237
ExecutionTime = 0.82 s  ClockTime = 0 s

Courant Number mean: 5.3338e-06 max: 0.00517583
Interface Courant Number mean: 0 max: 0
deltaT = 0.00293756
Time = 0.0118731

PIMPLE: iteration 1
MULES: Solving for alpha.water
Phase-1 volume fraction = 0.694444  Min(alpha.water) = 0  Max(alpha.water) = 1.00003
MULES: Solving for alpha.water
Phase-1 volume fraction = 0.694444  Min(alpha.water) = 0  Max(alpha.water) = 1.00003
MULES: Solving for alpha.water
Phase-1 volume fraction = 0.694444  Min(alpha.water) = 0  Max(alpha.water) = 1.00003
GAMG:  Solving for p_rgh, Initial residual = 4.11285e-06, Final residual = 8.38449e-09, No Iterations 2
time step continuity errors : sum local = 4.36086e-07, global = 1.62534e-07, cumulative = -0.000386075
GAMG:  Solving for p_rgh, Initial residual = 8.48033e-09, Final residual = 8.48033e-09, No Iterations 0
time step continuity errors : sum local = 4.41069e-07, global = 1.62614e-07, cumulative = -0.000385912
GAMG:  Solving for p_rgh, Initial residual = 8.48123e-09, Final residual = 8.48123e-09, No Iterations 0
time step continuity errors : sum local = 4.41116e-07, global = 1.62614e-07, cumulative = -0.000385749
ExecutionTime = 0.94 s  ClockTime = 1 s

Courant Number mean: 8.2845e-06 max: 0.00495629
Interface Courant Number mean: 0 max: 0
deltaT = 0.00352508
Time = 0.0153981

PIMPLE: iteration 1
MULES: Solving for alpha.water
Phase-1 volume fraction = 0.694444  Min(alpha.water) = 0  Max(alpha.water) = 1.00004
MULES: Solving for alpha.water
Phase-1 volume fraction = 0.694444  Min(alpha.water) = 0  Max(alpha.water) = 1.00004
MULES: Solving for alpha.water
Phase-1 volume fraction = 0.694444  Min(alpha.water) = 0  Max(alpha.water) = 1.00004
GAMG:  Solving for p_rgh, Initial residual = 7.43734e-06, Final residual = 6.40449e-08, No Iterations 1
time step continuity errors : sum local = 4.65631e-06, global = 4.02225e-08, cumulative = -0.000385709
GAMG:  Solving for p_rgh, Initial residual = 6.46823e-08, Final residual = 6.26047e-09, No Iterations 2
time step continuity errors : sum local = 4.55158e-07, global = 1.69287e-07, cumulative = -0.00038554
GAMG:  Solving for p_rgh, Initial residual = 6.5615e-09, Final residual = 6.5615e-09, No Iterations 0
time step continuity errors : sum local = 4.77046e-07, global = 1.68961e-07, cumulative = -0.000385371
ExecutionTime = 1.08 s  ClockTime = 1 s

Courant Number mean: 1.3578e-05 max: 0.00680413
Interface Courant Number mean: 0 max: 0
deltaT = 0.00423009
Time = 0.0196282

PIMPLE: iteration 1
MULES: Solving for alpha.water
Phase-1 volume fraction = 0.694444  Min(alpha.water) = 0  Max(alpha.water) = 1.00004
MULES: Solving for alpha.water
Phase-1 volume fraction = 0.694444  Min(alpha.water) = 0  Max(alpha.water) = 1.00005
MULES: Solving for alpha.water
Phase-1 volume fraction = 0.694444  Min(alpha.water) = 0  Max(alpha.water) = 1.00005
GAMG:  Solving for p_rgh, Initial residual = 1.44493e-05, Final residual = 1.35266e-07, No Iterations 1
time step continuity errors : sum local = 1.36807e-05, global = 1.33433e-07, cumulative = -0.000385237
GAMG:  Solving for p_rgh, Initial residual = 1.36344e-07, Final residual = 4.87404e-09, No Iterations 2
time step continuity errors : sum local = 4.92953e-07, global = -1.18451e-07, cumulative = -0.000385356
GAMG:  Solving for p_rgh, Initial residual = 5.10233e-09, Final residual = 5.10233e-09, No Iterations 0
time step continuity errors : sum local = 5.16044e-07, global = -1.18773e-07, cumulative = -0.000385475
ExecutionTime = 1.22 s  ClockTime = 1 s

Courant Number mean: 1.68021e-05 max: 0.00580802
Interface Courant Number mean: 0 max: 0
deltaT = 0.00502324
Time = 0.0246515

PIMPLE: iteration 1
MULES: Solving for alpha.water
Phase-1 volume fraction = 0.694444  Min(alpha.water) = 0  Max(alpha.water) = 1.00005
MULES: Solving for alpha.water
Phase-1 volume fraction = 0.694444  Min(alpha.water) = 0  Max(alpha.water) = 1.00006
MULES: Solving for alpha.water
Phase-1 volume fraction = 0.694444  Min(alpha.water) = 0  Max(alpha.water) = 1.00006
GAMG:  Solving for p_rgh, Initial residual = 2.45354e-05, Final residual = 1.6307e-07, No Iterations 1
time step continuity errors : sum local = 2.24112e-05, global = -7.81977e-07, cumulative = -0.000386257
GAMG:  Solving for p_rgh, Initial residual = 1.65161e-07, Final residual = 8.22488e-09, No Iterations 2
time step continuity errors : sum local = 1.13035e-06, global = 9.01833e-08, cumulative = -0.000386166
GAMG:  Solving for p_rgh, Initial residual = 9.19783e-09, Final residual = 9.19783e-09, No Iterations 0
time step continuity errors : sum local = 1.26408e-06, global = 8.89212e-08, cumulative = -0.000386078
ExecutionTime = 1.36 s  ClockTime = 1 s

Courant Number mean: 3.70839e-05 max: 0.0157869
Interface Courant Number mean: 0 max: 0
deltaT = 0.00579604
Time = 0.0304475

PIMPLE: iteration 1
MULES: Solving for alpha.water
Phase-1 volume fraction = 0.694444  Min(alpha.water) = 0  Max(alpha.water) = 1.00007
MULES: Solving for alpha.water
Phase-1 volume fraction = 0.694444  Min(alpha.water) = 0  Max(alpha.water) = 1.00008
MULES: Solving for alpha.water
Phase-1 volume fraction = 0.694444  Min(alpha.water) = 0  Max(alpha.water) = 1.00008
GAMG:  Solving for p_rgh, Initial residual = 4.12183e-05, Final residual = 2.48745e-07, No Iterations 1
time step continuity errors : sum local = 4.39691e-05, global = 3.25113e-07, cumulative = -0.000385752
GAMG:  Solving for p_rgh, Initial residual = 2.51914e-07, Final residual = 8.26573e-09, No Iterations 2
time step continuity errors : sum local = 1.46103e-06, global = -4.30564e-07, cumulative = -0.000386183
GAMG:  Solving for p_rgh, Initial residual = 9.45912e-09, Final residual = 9.45912e-09, No Iterations 0
time step continuity errors : sum local = 1.67199e-06, global = -4.31905e-07, cumulative = -0.000386615
ExecutionTime = 1.5 s  ClockTime = 1 s

Courant Number mean: 5.15545e-05 max: 0.00913083
Interface Courant Number mean: 0 max: 0
deltaT = 0.00695525
Time = 0.0374028

PIMPLE: iteration 1
MULES: Solving for alpha.water
Phase-1 volume fraction = 0.694444  Min(alpha.water) = 0  Max(alpha.water) = 1.0001
MULES: Solving for alpha.water
Phase-1 volume fraction = 0.694444  Min(alpha.water) = 0  Max(alpha.water) = 1.00011
MULES: Solving for alpha.water
Phase-1 volume fraction = 0.694444  Min(alpha.water) = 0  Max(alpha.water) = 1.00013
GAMG:  Solving for p_rgh, Initial residual = 7.06635e-05, Final residual = 6.1251e-07, No Iterations 1
time step continuity errors : sum local = 0.000148739, global = -1.13002e-06, cumulative = -0.000387745
GAMG:  Solving for p_rgh, Initial residual = 6.20808e-07, Final residual = 5.72935e-09, No Iterations 3
time step continuity errors : sum local = 1.3912e-06, global = 3.79843e-07, cumulative = -0.000387365
GAMG:  Solving for p_rgh, Initial residual = 1.47565e-08, Final residual = 2.84145e-09, No Iterations 1
time step continuity errors : sum local = 6.89983e-07, global = 2.4053e-07, cumulative = -0.000387125
ExecutionTime = 1.65 s  ClockTime = 1 s

Courant Number mean: 9.56459e-05 max: 0.0089202
Interface Courant Number mean: 2.83287e-07 max: 0.0089202
deltaT = 0.00782466
Time = 0.0452274

PIMPLE: iteration 1
MULES: Solving for alpha.water
Phase-1 volume fraction = 0.694444  Min(alpha.water) = 0  Max(alpha.water) = 1.00013
MULES: Solving for alpha.water
Phase-1 volume fraction = 0.694444  Min(alpha.water) = 0  Max(alpha.water) = 1.00012
MULES: Solving for alpha.water
Phase-1 volume fraction = 0.694444  Min(alpha.water) = 0  Max(alpha.water) = 1.00012
GAMG:  Solving for p_rgh, Initial residual = 0.000113057, Final residual = 2.44952e-07, No Iterations 1
time step continuity errors : sum local = 7.27254e-05, global = 3.51353e-07, cumulative = -0.000386773
GAMG:  Solving for p_rgh, Initial residual = 2.54799e-07, Final residual = 9.3423e-09, No Iterations 2
time step continuity errors : sum local = 2.7734e-06, global = -1.41807e-06, cumulative = -0.000388191
GAMG:  Solving for p_rgh, Initial residual = 1.39687e-08, Final residual = 2.50354e-09, No Iterations 1
time step continuity errors : sum local = 7.43239e-07, global = -3.03224e-07, cumulative = -0.000388495
ExecutionTime = 1.79 s  ClockTime = 1 s

Courant Number mean: 0.000144646 max: 0.014672
Interface Courant Number mean: 9.88899e-07 max: 0.014672
deltaT = 0.00912876
Time = 0.0543562

PIMPLE: iteration 1
MULES: Solving for alpha.water
Phase-1 volume fraction = 0.694444  Min(alpha.water) = 0  Max(alpha.water) = 1.00012
MULES: Solving for alpha.water
Phase-1 volume fraction = 0.694444  Min(alpha.water) = 0  Max(alpha.water) = 1.00012
MULES: Solving for alpha.water
Phase-1 volume fraction = 0.694444  Min(alpha.water) = 0  Max(alpha.water) = 1.00012
GAMG:  Solving for p_rgh, Initial residual = 0.000180191, Final residual = 3.68041e-07, No Iterations 1
time step continuity errors : sum local = 0.000142112, global = 8.24085e-07, cumulative = -0.00038767
GAMG:  Solving for p_rgh, Initial residual = 3.86038e-07, Final residual = 3.88353e-09, No Iterations 3
time step continuity errors : sum local = 1.49931e-06, global = -8.94674e-07, cumulative = -0.000388565
GAMG:  Solving for p_rgh, Initial residual = 2.04076e-08, Final residual = 2.45339e-09, No Iterations 1
time step continuity errors : sum local = 9.4726e-07, global = -3.34533e-07, cumulative = -0.0003889
ExecutionTime = 1.96 s  ClockTime = 2 s

Courant Number mean: 0.00024593 max: 0.0237548
Interface Courant Number mean: 2.69503e-06 max: 0.0237548
deltaT = 0.011411
Time = 0.0657671

PIMPLE: iteration 1
MULES: Solving for alpha.water
Phase-1 volume fraction = 0.694444  Min(alpha.water) = 0  Max(alpha.water) = 1.00012
MULES: Solving for alpha.water
Phase-1 volume fraction = 0.694444  Min(alpha.water) = 0  Max(alpha.water) = 1.00012
MULES: Solving for alpha.water
Phase-1 volume fraction = 0.694444  Min(alpha.water) = 0  Max(alpha.water) = 1.00012
GAMG:  Solving for p_rgh, Initial residual = 0.000321266, Final residual = 6.46001e-07, No Iterations 1
time step continuity errors : sum local = 0.000363853, global = -2.75544e-06, cumulative = -0.000391655
GAMG:  Solving for p_rgh, Initial residual = 6.88631e-07, Final residual = 8.15996e-09, No Iterations 3
time step continuity errors : sum local = 4.59476e-06, global = -3.62698e-06, cumulative = -0.000395282
GAMG:  Solving for p_rgh, Initial residual = 4.60035e-08, Final residual = 5.41333e-09, No Iterations 1
time step continuity errors : sum local = 3.04869e-06, global = -8.18229e-07, cumulative = -0.0003961
ExecutionTime = 2.1 s  ClockTime = 2 s

Courant Number mean: 0.000450223 max: 0.0424641
Interface Courant Number mean: 6.13243e-06 max: 0.0424429
deltaT = 0.011411
Time = 0.0771781

PIMPLE: iteration 1
MULES: Solving for alpha.water
Phase-1 volume fraction = 0.694444  Min(alpha.water) = 0  Max(alpha.water) = 1.00012
MULES: Solving for alpha.water
Phase-1 volume fraction = 0.694444  Min(alpha.water) = 0  Max(alpha.water) = 1.00013
MULES: Solving for alpha.water
Phase-1 volume fraction = 0.694444  Min(alpha.water) = 0  Max(alpha.water) = 1.00014
GAMG:  Solving for p_rgh, Initial residual = 0.000446538, Final residual = 8.66897e-07, No Iterations 1
time step continuity errors : sum local = 0.000486683, global = 4.20545e-06, cumulative = -0.000391895
GAMG:  Solving for p_rgh, Initial residual = 9.28711e-07, Final residual = 8.99136e-09, No Iterations 3
time step continuity errors : sum local = 5.04627e-06, global = -2.8362e-06, cumulative = -0.000394731
GAMG:  Solving for p_rgh, Initial residual = 6.68621e-08, Final residual = 7.61964e-09, No Iterations 1
time step continuity errors : sum local = 4.27743e-06, global = -9.1627e-07, cumulative = -0.000395647
ExecutionTime = 2.24 s  ClockTime = 2 s

Courant Number mean: 0.000620364 max: 0.056611
Interface Courant Number mean: 9.18744e-06 max: 0.0563187
deltaT = 0.011411
Time = 0.088589

PIMPLE: iteration 1
MULES: Solving for alpha.water
Phase-1 volume fraction = 0.694444  Min(alpha.water) = 0  Max(alpha.water) = 1.00016
MULES: Solving for alpha.water
Phase-1 volume fraction = 0.694444  Min(alpha.water) = 0  Max(alpha.water) = 1.00018
MULES: Solving for alpha.water
Phase-1 volume fraction = 0.694444  Min(alpha.water) = 0  Max(alpha.water) = 1.0002
GAMG:  Solving for p_rgh, Initial residual = 0.000599332, Final residual = 1.11641e-06, No Iterations 1
time step continuity errors : sum local = 0.000624923, global = -4.45314e-06, cumulative = -0.0004001
GAMG:  Solving for p_rgh, Initial residual = 1.2048e-06, Final residual = 5.48258e-09, No Iterations 4
time step continuity errors : sum local = 3.06769e-06, global = -2.36508e-06, cumulative = -0.000402466
GAMG:  Solving for p_rgh, Initial residual = 9.27952e-08, Final residual = 2.49941e-09, No Iterations 2
time step continuity errors : sum local = 1.39905e-06, global = -2.43017e-08, cumulative = -0.00040249
ExecutionTime = 2.4 s  ClockTime = 2 s

Courant Number mean: 0.000786125 max: 0.0698748
Interface Courant Number mean: 1.24228e-05 max: 0.0693207
deltaT = 0.011411
Time = 0.1

PIMPLE: iteration 1
MULES: Solving for alpha.water
Phase-1 volume fraction = 0.694444  Min(alpha.water) = 0  Max(alpha.water) = 1.0002
MULES: Solving for alpha.water
Phase-1 volume fraction = 0.694444  Min(alpha.water) = 0  Max(alpha.water) = 1.0002
MULES: Solving for alpha.water
Phase-1 volume fraction = 0.694444  Min(alpha.water) = 0  Max(alpha.water) = 1.00021
GAMG:  Solving for p_rgh, Initial residual = 0.000782627, Final residual = 1.5315e-06, No Iterations 1
time step continuity errors : sum local = 0.000854323, global = 7.95036e-06, cumulative = -0.000394539
GAMG:  Solving for p_rgh, Initial residual = 1.6518e-06, Final residual = 1.5461e-08, No Iterations 3
time step continuity errors : sum local = 8.62115e-06, global = -5.24803e-06, cumulative = -0.000399788
GAMG:  Solving for p_rgh, Initial residual = 1.28493e-07, Final residual = 3.33063e-09, No Iterations 2
time step continuity errors : sum local = 1.85789e-06, global = -5.12016e-07, cumulative = -0.0004003
ExecutionTime = 2.55 s  ClockTime = 2 s

Courant Number mean: 0.000987011 max: 0.0862146
Interface Courant Number mean: 1.60425e-05 max: 0.0853433
deltaT = 0.0142857
Time = 0.114286

PIMPLE: iteration 1
MULES: Solving for alpha.water
Phase-1 volume fraction = 0.694444  Min(alpha.water) = 0  Max(alpha.water) = 1.00023
MULES: Solving for alpha.water
Phase-1 volume fraction = 0.694444  Min(alpha.water) = 0  Max(alpha.water) = 1.00025
MULES: Solving for alpha.water
Phase-1 volume fraction = 0.694444  Min(alpha.water) = 0  Max(alpha.water) = 1.00027
GAMG:  Solving for p_rgh, Initial residual = 0.00119791, Final residual = 2.24991e-06, No Iterations 1
time step continuity errors : sum local = 0.00183129, global = -1.32124e-05, cumulative = -0.000413512
GAMG:  Solving for p_rgh, Initial residual = 2.48566e-06, Final residual = 1.12452e-08, No Iterations 4
time step continuity errors : sum local = 9.1461e-06, global = -7.23407e-06, cumulative = -0.000420746
GAMG:  Solving for p_rgh, Initial residual = 2.45343e-07, Final residual = 7.34761e-09, No Iterations 2
time step continuity errors : sum local = 5.98112e-06, global = 5.49687e-07, cumulative = -0.000420196
ExecutionTime = 2.71 s  ClockTime = 2 s

Courant Number mean: 0.00162375 max: 0.130945
Interface Courant Number mean: 2.65458e-05 max: 0.129581
deltaT = 0.0171429
Time = 0.131429

PIMPLE: iteration 1
MULES: Solving for alpha.water
Phase-1 volume fraction = 0.694444  Min(alpha.water) = 0  Max(alpha.water) = 1.00029
MULES: Solving for alpha.water
Phase-1 volume fraction = 0.694444  Min(alpha.water) = 0  Max(alpha.water) = 1.00031
MULES: Solving for alpha.water
Phase-1 volume fraction = 0.694444  Min(alpha.water) = 0  Max(alpha.water) = 1.00033
GAMG:  Solving for p_rgh, Initial residual = 0.00179319, Final residual = 3.36813e-06, No Iterations 1
time step continuity errors : sum local = 0.00371532, global = 4.06741e-05, cumulative = -0.000379522
GAMG:  Solving for p_rgh, Initial residual = 3.8193e-06, Final residual = 3.75352e-08, No Iterations 3
time step continuity errors : sum local = 4.13615e-05, global = -2.50185e-05, cumulative = -0.000404541
GAMG:  Solving for p_rgh, Initial residual = 4.72734e-07, Final residual = 4.22576e-09, No Iterations 3
time step continuity errors : sum local = 4.66173e-06, global = -5.9395e-07, cumulative = -0.000405135
ExecutionTime = 2.87 s  ClockTime = 3 s

Courant Number mean: 0.00249734 max: 0.196739
Interface Courant Number mean: 4.20043e-05 max: 0.194878
deltaT = 0.0228571
Time = 0.154286

PIMPLE: iteration 1
MULES: Solving for alpha.water
Phase-1 volume fraction = 0.694444  Min(alpha.water) = 0  Max(alpha.water) = 1.00038
MULES: Solving for alpha.water
Phase-1 volume fraction = 0.694444  Min(alpha.water) = 0  Max(alpha.water) = 1.00044
MULES: Solving for alpha.water
Phase-1 volume fraction = 0.694444  Min(alpha.water) = 0  Max(alpha.water) = 1.00049
GAMG:  Solving for p_rgh, Initial residual = 0.00269323, Final residual = 4.47082e-06, No Iterations 1
time step continuity errors : sum local = 0.00794374, global = -7.20545e-05, cumulative = -0.000477189
GAMG:  Solving for p_rgh, Initial residual = 5.27061e-06, Final residual = 2.75487e-08, No Iterations 4
time step continuity errors : sum local = 4.88183e-05, global = -3.78711e-05, cumulative = -0.00051506
GAMG:  Solving for p_rgh, Initial residual = 8.1673e-07, Final residual = 8.12557e-09, No Iterations 3
time step continuity errors : sum local = 1.4438e-05, global = 7.04956e-06, cumulative = -0.000508011
ExecutionTime = 3.02 s  ClockTime = 3 s

Courant Number mean: 0.00455919 max: 0.31852
Interface Courant Number mean: 8.50597e-05 max: 0.318297
deltaT = 0.0228571
Time = 0.177143

PIMPLE: iteration 1
MULES: Solving for alpha.water
Phase-1 volume fraction = 0.694444  Min(alpha.water) = 0  Max(alpha.water) = 1.00044
MULES: Solving for alpha.water
Phase-1 volume fraction = 0.694444  Min(alpha.water) = 0  Max(alpha.water) = 1.0004
MULES: Solving for alpha.water
Phase-1 volume fraction = 0.694444  Min(alpha.water) = 0  Max(alpha.water) = 1.00038
GAMG:  Solving for p_rgh, Initial residual = 0.00326162, Final residual = 4.93464e-06, No Iterations 1
time step continuity errors : sum local = 0.00873916, global = 7.71411e-05, cumulative = -0.00043087
GAMG:  Solving for p_rgh, Initial residual = 5.89585e-06, Final residual = 2.71393e-08, No Iterations 4
time step continuity errors : sum local = 4.79154e-05, global = -2.68987e-05, cumulative = -0.000457768
GAMG:  Solving for p_rgh, Initial residual = 1.01036e-06, Final residual = 5.62019e-09, No Iterations 4
time step continuity errors : sum local = 9.95221e-06, global = 5.97665e-06, cumulative = -0.000451792
ExecutionTime = 3.19 s  ClockTime = 3 s

Courant Number mean: 0.00580118 max: 0.387487
Interface Courant Number mean: 0.000127758 max: 0.387487
deltaT = 0.0228571
Time = 0.2

PIMPLE: iteration 1
MULES: Solving for alpha.water
Phase-1 volume fraction = 0.694444  Min(alpha.water) = 0  Max(alpha.water) = 1.00038
MULES: Solving for alpha.water
Phase-1 volume fraction = 0.694444  Min(alpha.water) = 0  Max(alpha.water) = 1.00038
MULES: Solving for alpha.water
Phase-1 volume fraction = 0.694444  Min(alpha.water) = 0  Max(alpha.water) = 1.00038
GAMG:  Solving for p_rgh, Initial residual = 0.00388429, Final residual = 5.22474e-06, No Iterations 1
time step continuity errors : sum local = 0.00920512, global = -0.00044817, cumulative = -0.000899961
GAMG:  Solving for p_rgh, Initial residual = 6.44623e-06, Final residual = 3.52288e-08, No Iterations 4
time step continuity errors : sum local = 6.1814e-05, global = -4.83958e-05, cumulative = -0.000948357
GAMG:  Solving for p_rgh, Initial residual = 1.26439e-06, Final residual = 3.10991e-09, No Iterations 4
time step continuity errors : sum local = 5.47836e-06, global = 3.06815e-06, cumulative = -0.000945289
ExecutionTime = 3.38 s  ClockTime = 3 s

Courant Number mean: 0.00709373 max: 0.448974
Interface Courant Number mean: 0.000170924 max: 0.448974
deltaT = 0.025
Time = 0.225

PIMPLE: iteration 1
MULES: Solving for alpha.water
Phase-1 volume fraction = 0.694444  Min(alpha.water) = 0  Max(alpha.water) = 1.00037
MULES: Solving for alpha.water
Phase-1 volume fraction = 0.694444  Min(alpha.water) = 0  Max(alpha.water) = 1.00038
MULES: Solving for alpha.water
Phase-1 volume fraction = 0.694444  Min(alpha.water) = 0  Max(alpha.water) = 1.00038
GAMG:  Solving for p_rgh, Initial residual = 0.0047661, Final residual = 7.05406e-06, No Iterations 1
time step continuity errors : sum local = 0.0143675, global = -0.000391794, cumulative = -0.00133708
GAMG:  Solving for p_rgh, Initial residual = 9.05173e-06, Final residual = 8.9474e-08, No Iterations 3
time step continuity errors : sum local = 0.00018154, global = -0.000103766, cumulative = -0.00144085
GAMG:  Solving for p_rgh, Initial residual = 2.13268e-06, Final residual = 6.66177e-09, No Iterations 4
time step continuity errors : sum local = 1.35606e-05, global = -8.23591e-08, cumulative = -0.00144093
ExecutionTime = 3.56 s  ClockTime = 3 s

Courant Number mean: 0.00960023 max: 0.797919
Interface Courant Number mean: 0.000225609 max: 0.548035
deltaT = 0.025
Time = 0.25

PIMPLE: iteration 1
MULES: Solving for alpha.water
Phase-1 volume fraction = 0.694444  Min(alpha.water) = 0  Max(alpha.water) = 1.00043
MULES: Solving for alpha.water
Phase-1 volume fraction = 0.694444  Min(alpha.water) = 0  Max(alpha.water) = 1.00049
MULES: Solving for alpha.water
Phase-1 volume fraction = 0.694444  Min(alpha.water) = 0  Max(alpha.water) = 1.00054
GAMG:  Solving for p_rgh, Initial residual = 0.00528611, Final residual = 8.22616e-06, No Iterations 1
time step continuity errors : sum local = 0.0166765, global = -0.00102685, cumulative = -0.00246778
GAMG:  Solving for p_rgh, Initial residual = 1.08642e-05, Final residual = 4.88681e-08, No Iterations 4
time step continuity errors : sum local = 9.86029e-05, global = -5.86371e-05, cumulative = -0.00252642
GAMG:  Solving for p_rgh, Initial residual = 2.7512e-06, Final residual = 6.55847e-09, No Iterations 4
time step continuity errors : sum local = 1.32869e-05, global = 3.52194e-06, cumulative = -0.0025229
ExecutionTime = 3.72 s  ClockTime = 3 s

Courant Number mean: 0.0115386 max: 1.36784
Interface Courant Number mean: 0.00028803 max: 0.57015
deltaT = 0.0166667
Time = 0.266667

PIMPLE: iteration 1
MULES: Solving for alpha.water
Phase-1 volume fraction = 0.694444  Min(alpha.water) = 0  Max(alpha.water) = 1.00053
MULES: Solving for alpha.water
Phase-1 volume fraction = 0.694444  Min(alpha.water) = 0  Max(alpha.water) = 1.00052
MULES: Solving for alpha.water
Phase-1 volume fraction = 0.694444  Min(alpha.water) = 0  Max(alpha.water) = 1.00052
GAMG:  Solving for p_rgh, Initial residual = 0.00431473, Final residual = 7.46958e-06, No Iterations 1
time step continuity errors : sum local = 0.00765245, global = -0.000149272, cumulative = -0.00267217
GAMG:  Solving for p_rgh, Initial residual = 9.05745e-06, Final residual = 8.8629e-08, No Iterations 3
time step continuity errors : sum local = 9.05945e-05, global = -3.25358e-05, cumulative = -0.0027047
GAMG:  Solving for p_rgh, Initial residual = 1.70573e-06, Final residual = 5.39123e-09, No Iterations 4
time step continuity errors : sum local = 5.51985e-06, global = -1.35104e-06, cumulative = -0.00270606
ExecutionTime = 3.92 s  ClockTime = 4 s

Courant Number mean: 0.00838971 max: 0.572687
Interface Courant Number mean: 0.000207044 max: 0.404721
deltaT = 0.0166667
Time = 0.283333

PIMPLE: iteration 1
MULES: Solving for alpha.water
Phase-1 volume fraction = 0.694444  Min(alpha.water) = 0  Max(alpha.water) = 1.00054
MULES: Solving for alpha.water
Phase-1 volume fraction = 0.694444  Min(alpha.water) = 0  Max(alpha.water) = 1.00055
MULES: Solving for alpha.water
Phase-1 volume fraction = 0.694444  Min(alpha.water) = 0  Max(alpha.water) = 1.00057
GAMG:  Solving for p_rgh, Initial residual = 0.00451336, Final residual = 7.55644e-06, No Iterations 1
time step continuity errors : sum local = 0.00770605, global = -0.000259717, cumulative = -0.00296577
GAMG:  Solving for p_rgh, Initial residual = 9.26055e-06, Final residual = 4.19882e-08, No Iterations 4
time step continuity errors : sum local = 4.27059e-05, global = -1.7057e-05, cumulative = -0.00298283
GAMG:  Solving for p_rgh, Initial residual = 1.79897e-06, Final residual = 7.05048e-09, No Iterations 4
time step continuity errors : sum local = 7.18704e-06, global = -3.01775e-07, cumulative = -0.00298313
ExecutionTime = 4.09 s  ClockTime = 4 s

Courant Number mean: 0.00920069 max: 0.488499
Interface Courant Number mean: 0.00022628 max: 0.419643
deltaT = 0.0166667
Time = 0.3

PIMPLE: iteration 1
MULES: Solving for alpha.water
Phase-1 volume fraction = 0.694444  Min(alpha.water) = 0  Max(alpha.water) = 1.00057
MULES: Solving for alpha.water
Phase-1 volume fraction = 0.694444  Min(alpha.water) = 0  Max(alpha.water) = 1.00057
MULES: Solving for alpha.water
Phase-1 volume fraction = 0.694444  Min(alpha.water) = 0  Max(alpha.water) = 1.00057
GAMG:  Solving for p_rgh, Initial residual = 0.00491806, Final residual = 8.29761e-06, No Iterations 1
time step continuity errors : sum local = 0.00842965, global = 3.35632e-05, cumulative = -0.00294957
GAMG:  Solving for p_rgh, Initial residual = 1.0225e-05, Final residual = 3.11566e-08, No Iterations 4
time step continuity errors : sum local = 3.15759e-05, global = -8.21991e-06, cumulative = -0.00295779
GAMG:  Solving for p_rgh, Initial residual = 2.02034e-06, Final residual = 4.68803e-09, No Iterations 5
time step continuity errors : sum local = 4.75904e-06, global = -1.38423e-06, cumulative = -0.00295917
ExecutionTime = 4.26 s  ClockTime = 4 s

Courant Number mean: 0.00997478 max: 0.492349
Interface Courant Number mean: 0.000254946 max: 0.431315
deltaT = 0.02
Time = 0.32

PIMPLE: iteration 1
MULES: Solving for alpha.water
Phase-1 volume fraction = 0.694444  Min(alpha.water) = 0  Max(alpha.water) = 1.00057
MULES: Solving for alpha.water
Phase-1 volume fraction = 0.694444  Min(alpha.water) = 0  Max(alpha.water) = 1.00057
MULES: Solving for alpha.water
Phase-1 volume fraction = 0.694444  Min(alpha.water) = 0  Max(alpha.water) = 1.00057
GAMG:  Solving for p_rgh, Initial residual = 0.00609653, Final residual = 9.78846e-06, No Iterations 1
time step continuity errors : sum local = 0.0134534, global = -0.000449848, cumulative = -0.00340902
GAMG:  Solving for p_rgh, Initial residual = 1.22756e-05, Final residual = 6.19997e-08, No Iterations 4
time step continuity errors : sum local = 8.49769e-05, global = -1.7394e-05, cumulative = -0.00342641
GAMG:  Solving for p_rgh, Initial residual = 2.6924e-06, Final residual = 8.30816e-09, No Iterations 4
time step continuity errors : sum local = 1.14099e-05, global = -3.46109e-06, cumulative = -0.00342988
ExecutionTime = 4.44 s  ClockTime = 4 s

Courant Number mean: 0.0131926 max: 0.751397
Interface Courant Number mean: 0.000335905 max: 0.524882
deltaT = 0.02
Time = 0.34

PIMPLE: iteration 1
MULES: Solving for alpha.water
Phase-1 volume fraction = 0.694444  Min(alpha.water) = 0  Max(alpha.water) = 1.00056
MULES: Solving for alpha.water
Phase-1 volume fraction = 0.694444  Min(alpha.water) = 0  Max(alpha.water) = 1.00055
MULES: Solving for alpha.water
Phase-1 volume fraction = 0.694444  Min(alpha.water) = 0  Max(alpha.water) = 1.00055
GAMG:  Solving for p_rgh, Initial residual = 0.00653191, Final residual = 1.09172e-05, No Iterations 1
time step continuity errors : sum local = 0.0149493, global = -4.41296e-05, cumulative = -0.00347401
GAMG:  Solving for p_rgh, Initial residual = 1.36838e-05, Final residual = 4.31664e-08, No Iterations 4
time step continuity errors : sum local = 5.89977e-05, global = -1.622e-06, cumulative = -0.00347563
GAMG:  Solving for p_rgh, Initial residual = 2.96902e-06, Final residual = 4.99865e-09, No Iterations 5
time step continuity errors : sum local = 6.83653e-06, global = -3.39663e-06, cumulative = -0.00347902
ExecutionTime = 4.61 s  ClockTime = 4 s

Courant Number mean: 0.0142641 max: 0.777194
Interface Courant Number mean: 0.000359081 max: 0.520167
deltaT = 0.02
Time = 0.36

PIMPLE: iteration 1
MULES: Solving for alpha.water
Phase-1 volume fraction = 0.694444  Min(alpha.water) = 0  Max(alpha.water) = 1.00055
MULES: Solving for alpha.water
Phase-1 volume fraction = 0.694444  Min(alpha.water) = 0  Max(alpha.water) = 1.00055
MULES: Solving for alpha.water
Phase-1 volume fraction = 0.694444  Min(alpha.water) = 0  Max(alpha.water) = 1.00055
GAMG:  Solving for p_rgh, Initial residual = 0.0067573, Final residual = 1.21419e-05, No Iterations 1
time step continuity errors : sum local = 0.0165507, global = -0.000504152, cumulative = -0.00398318
GAMG:  Solving for p_rgh, Initial residual = 1.5196e-05, Final residual = 8.09715e-08, No Iterations 4
time step continuity errors : sum local = 0.000110115, global = -6.57685e-06, cumulative = -0.00398975
GAMG:  Solving for p_rgh, Initial residual = 3.31225e-06, Final residual = 8.59141e-09, No Iterations 4
time step continuity errors : sum local = 1.16991e-05, global = -4.79815e-06, cumulative = -0.00399455
ExecutionTime = 4.78 s  ClockTime = 5 s

Courant Number mean: 0.0154081 max: 0.802607
Interface Courant Number mean: 0.000396538 max: 0.548402
deltaT = 0.02
Time = 0.38

PIMPLE: iteration 1
MULES: Solving for alpha.water
Phase-1 volume fraction = 0.694444  Min(alpha.water) = 0  Max(alpha.water) = 1.00054
MULES: Solving for alpha.water
Phase-1 volume fraction = 0.694444  Min(alpha.water) = 0  Max(alpha.water) = 1.00054
MULES: Solving for alpha.water
Phase-1 volume fraction = 0.694444  Min(alpha.water) = 0  Max(alpha.water) = 1.00053
GAMG:  Solving for p_rgh, Initial residual = 0.00724392, Final residual = 1.32896e-05, No Iterations 1
time step continuity errors : sum local = 0.018059, global = 0.000115547, cumulative = -0.003879
GAMG:  Solving for p_rgh, Initial residual = 1.63651e-05, Final residual = 4.79821e-08, No Iterations 4
time step continuity errors : sum local = 6.5052e-05, global = -8.27246e-06, cumulative = -0.00388728
GAMG:  Solving for p_rgh, Initial residual = 3.39923e-06, Final residual = 6.49084e-09, No Iterations 5
time step continuity errors : sum local = 8.81315e-06, global = -3.58087e-06, cumulative = -0.00389086
ExecutionTime = 4.95 s  ClockTime = 5 s

Courant Number mean: 0.0164614 max: 0.678867
Interface Courant Number mean: 0.000421824 max: 0.565962
deltaT = 0.02
Time = 0.4

PIMPLE: iteration 1
MULES: Solving for alpha.water
Phase-1 volume fraction = 0.694444  Min(alpha.water) = 0  Max(alpha.water) = 1.00053
MULES: Solving for alpha.water
Phase-1 volume fraction = 0.694444  Min(alpha.water) = 0  Max(alpha.water) = 1.00053
MULES: Solving for alpha.water
Phase-1 volume fraction = 0.694444  Min(alpha.water) = 0  Max(alpha.water) = 1.00053
GAMG:  Solving for p_rgh, Initial residual = 0.0073012, Final residual = 1.2461e-05, No Iterations 1
time step continuity errors : sum local = 0.0168552, global = -0.00030667, cumulative = -0.00419753
GAMG:  Solving for p_rgh, Initial residual = 1.55651e-05, Final residual = 8.38696e-08, No Iterations 4
time step continuity errors : sum local = 0.000113088, global = -1.20657e-05, cumulative = -0.00420959
GAMG:  Solving for p_rgh, Initial residual = 3.38373e-06, Final residual = 3.67351e-09, No Iterations 5
time step continuity errors : sum local = 4.9651e-06, global = -1.6617e-06, cumulative = -0.00421125
ExecutionTime = 5.14 s  ClockTime = 5 s

Courant Number mean: 0.0174534 max: 0.670205
Interface Courant Number mean: 0.000433462 max: 0.572518
deltaT = 0.025
Time = 0.425

PIMPLE: iteration 1
MULES: Solving for alpha.water
Phase-1 volume fraction = 0.694444  Min(alpha.water) = 0  Max(alpha.water) = 1.00052
MULES: Solving for alpha.water
Phase-1 volume fraction = 0.694444  Min(alpha.water) = 0  Max(alpha.water) = 1.00052
MULES: Solving for alpha.water
Phase-1 volume fraction = 0.694444  Min(alpha.water) = 0  Max(alpha.water) = 1.00052
GAMG:  Solving for p_rgh, Initial residual = 0.0092798, Final residual = 1.6428e-05, No Iterations 1
time step continuity errors : sum local = 0.0322243, global = -0.000745251, cumulative = -0.00495651
GAMG:  Solving for p_rgh, Initial residual = 2.20709e-05, Final residual = 6.474e-08, No Iterations 4
time step continuity errors : sum local = 0.000126497, global = -2.708e-05, cumulative = -0.00498359
GAMG:  Solving for p_rgh, Initial residual = 6.19552e-06, Final residual = 4.37728e-09, No Iterations 6
time step continuity errors : sum local = 8.57579e-06, global = -3.36916e-06, cumulative = -0.00498696
ExecutionTime = 5.34 s  ClockTime = 5 s

Courant Number mean: 0.0234893 max: 0.933046
Interface Courant Number mean: 0.000569897 max: 0.714729
deltaT = 0.025
Time = 0.45

PIMPLE: iteration 1
MULES: Solving for alpha.water
Phase-1 volume fraction = 0.694444  Min(alpha.water) = 0  Max(alpha.water) = 1.00051
MULES: Solving for alpha.water
Phase-1 volume fraction = 0.694444  Min(alpha.water) = 0  Max(alpha.water) = 1.00051
MULES: Solving for alpha.water
Phase-1 volume fraction = 0.694444  Min(alpha.water) = 0  Max(alpha.water) = 1.00051
GAMG:  Solving for p_rgh, Initial residual = 0.00933995, Final residual = 1.59568e-05, No Iterations 1
time step continuity errors : sum local = 0.0311434, global = -0.00112274, cumulative = -0.00610969
GAMG:  Solving for p_rgh, Initial residual = 2.17788e-05, Final residual = 1.12486e-07, No Iterations 4
time step continuity errors : sum local = 0.000218703, global = -1.88911e-05, cumulative = -0.00612859
GAMG:  Solving for p_rgh, Initial residual = 6.14105e-06, Final residual = 7.33708e-09, No Iterations 5
time step continuity errors : sum local = 1.43038e-05, global = -4.8216e-06, cumulative = -0.00613341
ExecutionTime = 5.52 s  ClockTime = 5 s

Courant Number mean: 0.0251334 max: 1.35346
Interface Courant Number mean: 0.000594913 max: 0.720464
deltaT = 0.0166667
Time = 0.466667

PIMPLE: iteration 1
MULES: Solving for alpha.water
Phase-1 volume fraction = 0.694444  Min(alpha.water) = 0  Max(alpha.water) = 1.0005
MULES: Solving for alpha.water
Phase-1 volume fraction = 0.694444  Min(alpha.water) = 0  Max(alpha.water) = 1.00049
MULES: Solving for alpha.water
Phase-1 volume fraction = 0.694444  Min(alpha.water) = 0  Max(alpha.water) = 1.00048
GAMG:  Solving for p_rgh, Initial residual = 0.00730011, Final residual = 1.30787e-05, No Iterations 1
time step continuity errors : sum local = 0.012853, global = -0.000280794, cumulative = -0.0064142
GAMG:  Solving for p_rgh, Initial residual = 1.6057e-05, Final residual = 5.64754e-08, No Iterations 4
time step continuity errors : sum local = 5.53661e-05, global = -7.26394e-06, cumulative = -0.00642146
GAMG:  Solving for p_rgh, Initial residual = 3.31234e-06, Final residual = 6.64389e-09, No Iterations 5
time step continuity errors : sum local = 6.52372e-06, global = -2.40199e-06, cumulative = -0.00642387
ExecutionTime = 5.7 s  ClockTime = 6 s

Courant Number mean: 0.0172109 max: 0.667188
Interface Courant Number mean: 0.000439018 max: 0.662437
deltaT = 0.0166667
Time = 0.483333

PIMPLE: iteration 1
MULES: Solving for alpha.water
Phase-1 volume fraction = 0.694444  Min(alpha.water) = 0  Max(alpha.water) = 1.00048
MULES: Solving for alpha.water
Phase-1 volume fraction = 0.694444  Min(alpha.water) = 0  Max(alpha.water) = 1.00047
MULES: Solving for alpha.water
Phase-1 volume fraction = 0.694444  Min(alpha.water) = 0  Max(alpha.water) = 1.00047
GAMG:  Solving for p_rgh, Initial residual = 0.00725458, Final residual = 1.25773e-05, No Iterations 1
time step continuity errors : sum local = 0.012313, global = -0.000343904, cumulative = -0.00676777
GAMG:  Solving for p_rgh, Initial residual = 1.55559e-05, Final residual = 9.40998e-08, No Iterations 4
time step continuity errors : sum local = 9.19443e-05, global = -3.1786e-06, cumulative = -0.00677095
GAMG:  Solving for p_rgh, Initial residual = 3.26906e-06, Final residual = 3.11265e-09, No Iterations 5
time step continuity errors : sum local = 3.04582e-06, global = -1.23085e-06, cumulative = -0.00677218
ExecutionTime = 5.9 s  ClockTime = 6 s

Courant Number mean: 0.0176879 max: 0.552616
Interface Courant Number mean: 0.000432636 max: 0.490908
deltaT = 0.0166667
Time = 0.5

PIMPLE: iteration 1
MULES: Solving for alpha.water
Phase-1 volume fraction = 0.694444  Min(alpha.water) = 0  Max(alpha.water) = 1.00047
MULES: Solving for alpha.water
Phase-1 volume fraction = 0.694444  Min(alpha.water) = 0  Max(alpha.water) = 1.00047
MULES: Solving for alpha.water
Phase-1 volume fraction = 0.694444  Min(alpha.water) = 0  Max(alpha.water) = 1.00047
GAMG:  Solving for p_rgh, Initial residual = 0.00734241, Final residual = 1.30416e-05, No Iterations 1
time step continuity errors : sum local = 0.012731, global = -0.000250138, cumulative = -0.00702232
GAMG:  Solving for p_rgh, Initial residual = 1.60469e-05, Final residual = 5.62631e-08, No Iterations 4
time step continuity errors : sum local = 5.47972e-05, global = -6.6504e-06, cumulative = -0.00702897
GAMG:  Solving for p_rgh, Initial residual = 3.24704e-06, Final residual = 6.26266e-09, No Iterations 5
time step continuity errors : sum local = 6.10853e-06, global = -2.40376e-06, cumulative = -0.00703137
ExecutionTime = 6.11 s  ClockTime = 6 s

Courant Number mean: 0.0182412 max: 0.558977
Interface Courant Number mean: 0.000450644 max: 0.558838
deltaT = 0.02
Time = 0.52

PIMPLE: iteration 1
MULES: Solving for alpha.water
Phase-1 volume fraction = 0.694444  Min(alpha.water) = 0  Max(alpha.water) = 1.00047
MULES: Solving for alpha.water
Phase-1 volume fraction = 0.694444  Min(alpha.water) = 0  Max(alpha.water) = 1.00047
MULES: Solving for alpha.water
Phase-1 volume fraction = 0.694444  Min(alpha.water) = 0  Max(alpha.water) = 1.00047
GAMG:  Solving for p_rgh, Initial residual = 0.00813131, Final residual = 1.2941e-05, No Iterations 1
time step continuity errors : sum local = 0.0171132, global = -0.000361716, cumulative = -0.00739309
GAMG:  Solving for p_rgh, Initial residual = 1.66823e-05, Final residual = 1.00361e-07, No Iterations 4
time step continuity errors : sum local = 0.000132405, global = 3.7226e-06, cumulative = -0.00738936
GAMG:  Solving for p_rgh, Initial residual = 3.96041e-06, Final residual = 4.44527e-09, No Iterations 5
time step continuity errors : sum local = 5.87324e-06, global = -2.43453e-06, cumulative = -0.0073918
ExecutionTime = 6.29 s  ClockTime = 6 s

Courant Number mean: 0.0225599 max: 0.642935
Interface Courant Number mean: 0.000576211 max: 0.596816
deltaT = 0.02
Time = 0.54

PIMPLE: iteration 1
MULES: Solving for alpha.water
Phase-1 volume fraction = 0.694444  Min(alpha.water) = 0  Max(alpha.water) = 1.00046
MULES: Solving for alpha.water
Phase-1 volume fraction = 0.694444  Min(alpha.water) = 0  Max(alpha.water) = 1.00046
MULES: Solving for alpha.water
Phase-1 volume fraction = 0.694444  Min(alpha.water) = 0  Max(alpha.water) = 1.00045
GAMG:  Solving for p_rgh, Initial residual = 0.0085245, Final residual = 1.38433e-05, No Iterations 1
time step continuity errors : sum local = 0.018263, global = -0.000126235, cumulative = -0.00751803
GAMG:  Solving for p_rgh, Initial residual = 1.78204e-05, Final residual = 6.93115e-08, No Iterations 4
time step continuity errors : sum local = 9.12555e-05, global = -4.86831e-06, cumulative = -0.0075229
GAMG:  Solving for p_rgh, Initial residual = 4.26224e-06, Final residual = 8.26099e-09, No Iterations 5
time step continuity errors : sum local = 1.08877e-05, global = -4.87472e-06, cumulative = -0.00752778
ExecutionTime = 6.47 s  ClockTime = 6 s

Courant Number mean: 0.0233029 max: 0.633001
Interface Courant Number mean: 0.000602072 max: 0.632545
deltaT = 0.02
Time = 0.56

PIMPLE: iteration 1
MULES: Solving for alpha.water
Phase-1 volume fraction = 0.694444  Min(alpha.water) = 0  Max(alpha.water) = 1.00045
MULES: Solving for alpha.water
Phase-1 volume fraction = 0.694444  Min(alpha.water) = 0  Max(alpha.water) = 1.00046
MULES: Solving for alpha.water
Phase-1 volume fraction = 0.694444  Min(alpha.water) = 0  Max(alpha.water) = 1.00046
GAMG:  Solving for p_rgh, Initial residual = 0.00861926, Final residual = 1.30759e-05, No Iterations 1
time step continuity errors : sum local = 0.0171893, global = -0.000323543, cumulative = -0.00785132
GAMG:  Solving for p_rgh, Initial residual = 1.69216e-05, Final residual = 9.75964e-08, No Iterations 4
time step continuity errors : sum local = 0.000128091, global = 1.08918e-05, cumulative = -0.00784043
GAMG:  Solving for p_rgh, Initial residual = 3.99136e-06, Final residual = 4.50378e-09, No Iterations 5
time step continuity errors : sum local = 5.91607e-06, global = -2.4547e-06, cumulative = -0.00784288
ExecutionTime = 6.65 s  ClockTime = 7 s

Courant Number mean: 0.0238767 max: 0.654999
Interface Courant Number mean: 0.000610787 max: 0.571554
deltaT = 0.02
Time = 0.58

PIMPLE: iteration 1
MULES: Solving for alpha.water
Phase-1 volume fraction = 0.694444  Min(alpha.water) = 0  Max(alpha.water) = 1.00046
MULES: Solving for alpha.water
Phase-1 volume fraction = 0.694444  Min(alpha.water) = 0  Max(alpha.water) = 1.00046
MULES: Solving for alpha.water
Phase-1 volume fraction = 0.694444  Min(alpha.water) = 0  Max(alpha.water) = 1.00046
GAMG:  Solving for p_rgh, Initial residual = 0.00891387, Final residual = 1.44982e-05, No Iterations 1
time step continuity errors : sum local = 0.019021, global = -0.000279861, cumulative = -0.00812274
GAMG:  Solving for p_rgh, Initial residual = 1.88931e-05, Final residual = 6.46644e-08, No Iterations 4
time step continuity errors : sum local = 8.47229e-05, global = -5.92331e-06, cumulative = -0.00812867
GAMG:  Solving for p_rgh, Initial residual = 4.65608e-06, Final residual = 8.08557e-09, No Iterations 5
time step continuity errors : sum local = 1.05998e-05, global = -4.64368e-06, cumulative = -0.00813331
ExecutionTime = 6.84 s  ClockTime = 7 s

Courant Number mean: 0.0246178 max: 0.673789
Interface Courant Number mean: 0.000636119 max: 0.585061
deltaT = 0.02
Time = 0.6

PIMPLE: iteration 1
MULES: Solving for alpha.water
Phase-1 volume fraction = 0.694444  Min(alpha.water) = 0  Max(alpha.water) = 1.00047
MULES: Solving for alpha.water
Phase-1 volume fraction = 0.694444  Min(alpha.water) = 0  Max(alpha.water) = 1.00047
MULES: Solving for alpha.water
Phase-1 volume fraction = 0.694444  Min(alpha.water) = 0  Max(alpha.water) = 1.00047
GAMG:  Solving for p_rgh, Initial residual = 0.00874221, Final residual = 1.33656e-05, No Iterations 1
time step continuity errors : sum local = 0.0174599, global = -0.00031207, cumulative = -0.00844538
GAMG:  Solving for p_rgh, Initial residual = 1.72286e-05, Final residual = 9.123e-08, No Iterations 4
time step continuity errors : sum local = 0.000119004, global = 1.22842e-05, cumulative = -0.0084331
GAMG:  Solving for p_rgh, Initial residual = 4.04542e-06, Final residual = 3.76205e-09, No Iterations 5
time step continuity errors : sum local = 4.91063e-06, global = -2.05317e-06, cumulative = -0.00843515
ExecutionTime = 7.03 s  ClockTime = 7 s

Courant Number mean: 0.0251978 max: 0.644615
Interface Courant Number mean: 0.000649125 max: 0.585313
deltaT = 0.025
Time = 0.625

PIMPLE: iteration 1
MULES: Solving for alpha.water
Phase-1 volume fraction = 0.694444  Min(alpha.water) = 0  Max(alpha.water) = 1.00048
MULES: Solving for alpha.water
Phase-1 volume fraction = 0.694444  Min(alpha.water) = 0  Max(alpha.water) = 1.00049
MULES: Solving for alpha.water
Phase-1 volume fraction = 0.694444  Min(alpha.water) = 0  Max(alpha.water) = 1.00049
GAMG:  Solving for p_rgh, Initial residual = 0.0105508, Final residual = 1.65705e-05, No Iterations 1
time step continuity errors : sum local = 0.0314793, global = -0.000597952, cumulative = -0.0090331
GAMG:  Solving for p_rgh, Initial residual = 2.27788e-05, Final residual = 6.70069e-08, No Iterations 4
time step continuity errors : sum local = 0.000127047, global = -1.37349e-05, cumulative = -0.00904684
GAMG:  Solving for p_rgh, Initial residual = 6.4779e-06, Final residual = 9.46435e-09, No Iterations 5
time step continuity errors : sum local = 1.79546e-05, global = -8.10006e-06, cumulative = -0.00905494
ExecutionTime = 7.2 s  ClockTime = 7 s

Courant Number mean: 0.0327091 max: 0.82423
Interface Courant Number mean: 0.000837805 max: 0.721307
deltaT = 0.025
Time = 0.65

PIMPLE: iteration 1
MULES: Solving for alpha.water
Phase-1 volume fraction = 0.694444  Min(alpha.water) = 0  Max(alpha.water) = 1.0005
MULES: Solving for alpha.water
Phase-1 volume fraction = 0.694444  Min(alpha.water) = 0  Max(alpha.water) = 1.00051
MULES: Solving for alpha.water
Phase-1 volume fraction = 0.694444  Min(alpha.water) = 0  Max(alpha.water) = 1.00052
GAMG:  Solving for p_rgh, Initial residual = 0.0106492, Final residual = 1.64508e-05, No Iterations 1
time step continuity errors : sum local = 0.0311155, global = -0.000611937, cumulative = -0.00966687
GAMG:  Solving for p_rgh, Initial residual = 2.22299e-05, Final residual = 1.05308e-07, No Iterations 4
time step continuity errors : sum local = 0.000198728, global = 1.63356e-05, cumulative = -0.00965054
GAMG:  Solving for p_rgh, Initial residual = 6.01926e-06, Final residual = 5.0573e-09, No Iterations 5
time step continuity errors : sum local = 9.55182e-06, global = -3.77394e-06, cumulative = -0.00965431
ExecutionTime = 7.36 s  ClockTime = 7 s

Courant Number mean: 0.0336689 max: 0.837351
Interface Courant Number mean: 0.000861185 max: 0.753832
deltaT = 0.025
Time = 0.675

PIMPLE: iteration 1
MULES: Solving for alpha.water
Phase-1 volume fraction = 0.694444  Min(alpha.water) = 0  Max(alpha.water) = 1.00052
MULES: Solving for alpha.water
Phase-1 volume fraction = 0.694444  Min(alpha.water) = 0  Max(alpha.water) = 1.00053
MULES: Solving for alpha.water
Phase-1 volume fraction = 0.694444  Min(alpha.water) = 0  Max(alpha.water) = 1.00053
GAMG:  Solving for p_rgh, Initial residual = 0.0109129, Final residual = 1.7706e-05, No Iterations 1
time step continuity errors : sum local = 0.0333981, global = -0.00018244, cumulative = -0.00983675
GAMG:  Solving for p_rgh, Initial residual = 2.33571e-05, Final residual = 7.01351e-08, No Iterations 4
time step continuity errors : sum local = 0.000131987, global = -1.88227e-05, cumulative = -0.00985557
GAMG:  Solving for p_rgh, Initial residual = 5.89462e-06, Final residual = 8.79747e-09, No Iterations 5
time step continuity errors : sum local = 1.65662e-05, global = -7.64416e-06, cumulative = -0.00986322
ExecutionTime = 7.52 s  ClockTime = 8 s

Courant Number mean: 0.0348196 max: 0.787592
Interface Courant Number mean: 0.000907689 max: 0.776193
deltaT = 0.025
Time = 0.7

PIMPLE: iteration 1
MULES: Solving for alpha.water
Phase-1 volume fraction = 0.694444  Min(alpha.water) = 0  Max(alpha.water) = 1.00054
MULES: Solving for alpha.water
Phase-1 volume fraction = 0.694444  Min(alpha.water) = 0  Max(alpha.water) = 1.00056
MULES: Solving for alpha.water
Phase-1 volume fraction = 0.694444  Min(alpha.water) = 0  Max(alpha.water) = 1.0006
GAMG:  Solving for p_rgh, Initial residual = 0.0112175, Final residual = 1.77472e-05, No Iterations 1
time step continuity errors : sum local = 0.0333679, global = -0.000546837, cumulative = -0.0104101
GAMG:  Solving for p_rgh, Initial residual = 2.36893e-05, Final residual = 1.16047e-07, No Iterations 4
time step continuity errors : sum local = 0.000217536, global = 2.77409e-06, cumulative = -0.0104073
GAMG:  Solving for p_rgh, Initial residual = 6.22625e-06, Final residual = 6.21666e-09, No Iterations 5
time step continuity errors : sum local = 1.16687e-05, global = -3.34526e-06, cumulative = -0.0104106
ExecutionTime = 7.72 s  ClockTime = 8 s

Courant Number mean: 0.0358813 max: 0.81629
Interface Courant Number mean: 0.000946545 max: 0.798874
deltaT = 0.025
Time = 0.725

PIMPLE: iteration 1
MULES: Solving for alpha.water
Phase-1 volume fraction = 0.694444  Min(alpha.water) = 0  Max(alpha.water) = 1.00062
MULES: Solving for alpha.water
Phase-1 volume fraction = 0.694444  Min(alpha.water) = 0  Max(alpha.water) = 1.00064
MULES: Solving for alpha.water
Phase-1 volume fraction = 0.694444  Min(alpha.water) = 0  Max(alpha.water) = 1.00067
GAMG:  Solving for p_rgh, Initial residual = 0.0115565, Final residual = 1.90059e-05, No Iterations 1
time step continuity errors : sum local = 0.035649, global = -0.000451674, cumulative = -0.0108623
GAMG:  Solving for p_rgh, Initial residual = 2.51155e-05, Final residual = 8.83999e-08, No Iterations 4
time step continuity errors : sum local = 0.00016522, global = -4.38059e-05, cumulative = -0.0109061
GAMG:  Solving for p_rgh, Initial residual = 6.40545e-06, Final residual = 3.40438e-09, No Iterations 6
time step continuity errors : sum local = 6.37358e-06, global = -2.84161e-06, cumulative = -0.0109089
ExecutionTime = 7.9 s  ClockTime = 8 s

Courant Number mean: 0.0369823 max: 0.813254
Interface Courant Number mean: 0.000988901 max: 0.813254
deltaT = 0.025
Time = 0.75

PIMPLE: iteration 1
MULES: Solving for alpha.water
Phase-1 volume fraction = 0.694444  Min(alpha.water) = 0  Max(alpha.water) = 1.00067
MULES: Solving for alpha.water
Phase-1 volume fraction = 0.694444  Min(alpha.water) = 0  Max(alpha.water) = 1.00067
MULES: Solving for alpha.water
Phase-1 volume fraction = 0.694444  Min(alpha.water) = 0  Max(alpha.water) = 1.00068
GAMG:  Solving for p_rgh, Initial residual = 0.0120368, Final residual = 1.88512e-05, No Iterations 1
time step continuity errors : sum local = 0.0352478, global = -0.000633794, cumulative = -0.0115427
GAMG:  Solving for p_rgh, Initial residual = 2.50794e-05, Final residual = 1.27534e-07, No Iterations 4
time step continuity errors : sum local = 0.000237537, global = -7.33568e-06, cumulative = -0.0115501
GAMG:  Solving for p_rgh, Initial residual = 6.55873e-06, Final residual = 7.00366e-09, No Iterations 5
time step continuity errors : sum local = 1.3069e-05, global = -1.36303e-06, cumulative = -0.0115514
ExecutionTime = 8.07 s  ClockTime = 8 s

Courant Number mean: 0.0382648 max: 0.918789
Interface Courant Number mean: 0.00103974 max: 0.82774
deltaT = 0.025
Time = 0.775

PIMPLE: iteration 1
MULES: Solving for alpha.water
Phase-1 volume fraction = 0.694444  Min(alpha.water) = 0  Max(alpha.water) = 1.0007
MULES: Solving for alpha.water
Phase-1 volume fraction = 0.694444  Min(alpha.water) = 0  Max(alpha.water) = 1.00072
MULES: Solving for alpha.water
Phase-1 volume fraction = 0.694444  Min(alpha.water) = 0  Max(alpha.water) = 1.00075
GAMG:  Solving for p_rgh, Initial residual = 0.0124959, Final residual = 1.99455e-05, No Iterations 1
time step continuity errors : sum local = 0.0371817, global = -0.000544117, cumulative = -0.0120956
GAMG:  Solving for p_rgh, Initial residual = 2.63925e-05, Final residual = 9.22094e-08, No Iterations 4
time step continuity errors : sum local = 0.000171164, global = -5.30928e-05, cumulative = -0.0121487
GAMG:  Solving for p_rgh, Initial residual = 6.74047e-06, Final residual = 9.70728e-09, No Iterations 5
time step continuity errors : sum local = 1.80576e-05, global = -5.67853e-06, cumulative = -0.0121543
ExecutionTime = 8.24 s  ClockTime = 8 s

Courant Number mean: 0.0396378 max: 0.84703
Interface Courant Number mean: 0.00107207 max: 0.84703
deltaT = 0.025
Time = 0.8

PIMPLE: iteration 1
MULES: Solving for alpha.water
Phase-1 volume fraction = 0.694444  Min(alpha.water) = 0  Max(alpha.water) = 1.00077
MULES: Solving for alpha.water
Phase-1 volume fraction = 0.694444  Min(alpha.water) = 0  Max(alpha.water) = 1.00079
MULES: Solving for alpha.water
Phase-1 volume fraction = 0.694444  Min(alpha.water) = 0  Max(alpha.water) = 1.00081
GAMG:  Solving for p_rgh, Initial residual = 0.0131629, Final residual = 2.10139e-05, No Iterations 1
time step continuity errors : sum local = 0.0390363, global = -0.000566468, cumulative = -0.0127208
GAMG:  Solving for p_rgh, Initial residual = 2.77853e-05, Final residual = 1.31065e-07, No Iterations 4
time step continuity errors : sum local = 0.000242324, global = -7.08288e-06, cumulative = -0.0127279
GAMG:  Solving for p_rgh, Initial residual = 7.11087e-06, Final residual = 7.09869e-09, No Iterations 5
time step continuity errors : sum local = 1.31535e-05, global = -9.89767e-07, cumulative = -0.0127289
ExecutionTime = 8.41 s  ClockTime = 8 s

Courant Number mean: 0.0409155 max: 0.866401
Interface Courant Number mean: 0.00111693 max: 0.844035
deltaT = 0.025
Time = 0.825

PIMPLE: iteration 1
MULES: Solving for alpha.water
Phase-1 volume fraction = 0.694444  Min(alpha.water) = 0  Max(alpha.water) = 1.00082
MULES: Solving for alpha.water
Phase-1 volume fraction = 0.694444  Min(alpha.water) = 0  Max(alpha.water) = 1.00083
MULES: Solving for alpha.water
Phase-1 volume fraction = 0.694444  Min(alpha.water) = 0  Max(alpha.water) = 1.00085
GAMG:  Solving for p_rgh, Initial residual = 0.013771, Final residual = 2.27477e-05, No Iterations 1
time step continuity errors : sum local = 0.0421202, global = -0.000914704, cumulative = -0.0136436
GAMG:  Solving for p_rgh, Initial residual = 3.05662e-05, Final residual = 1.21822e-07, No Iterations 4
time step continuity errors : sum local = 0.000224613, global = -9.17386e-05, cumulative = -0.0137353
GAMG:  Solving for p_rgh, Initial residual = 8.24314e-06, Final residual = 3.83725e-09, No Iterations 6
time step continuity errors : sum local = 7.08932e-06, global = -1.47549e-06, cumulative = -0.0137368
ExecutionTime = 8.58 s  ClockTime = 9 s

Courant Number mean: 0.0422646 max: 1.26932
Interface Courant Number mean: 0.00114076 max: 0.875276
deltaT = 0.01875
Time = 0.84375

PIMPLE: iteration 1
MULES: Solving for alpha.water
Phase-1 volume fraction = 0.694444  Min(alpha.water) = 0  Max(alpha.water) = 1.00085
MULES: Solving for alpha.water
Phase-1 volume fraction = 0.694444  Min(alpha.water) = 0  Max(alpha.water) = 1.00085
MULES: Solving for alpha.water
Phase-1 volume fraction = 0.694444  Min(alpha.water) = 0  Max(alpha.water) = 1.00085
GAMG:  Solving for p_rgh, Initial residual = 0.0116096, Final residual = 1.95433e-05, No Iterations 1
time step continuity errors : sum local = 0.0221079, global = -0.000233949, cumulative = -0.0139707
GAMG:  Solving for p_rgh, Initial residual = 2.45368e-05, Final residual = 1.20473e-07, No Iterations 4
time step continuity errors : sum local = 0.000135821, global = -4.75733e-06, cumulative = -0.0139755
GAMG:  Solving for p_rgh, Initial residual = 5.32945e-06, Final residual = 5.30574e-09, No Iterations 5
time step continuity errors : sum local = 5.99076e-06, global = 3.93002e-08, cumulative = -0.0139755
ExecutionTime = 8.73 s  ClockTime = 9 s

Courant Number mean: 0.0324571 max: 0.721267
Interface Courant Number mean: 0.000903332 max: 0.671677
deltaT = 0.01875
Time = 0.8625

PIMPLE: iteration 1
MULES: Solving for alpha.water
Phase-1 volume fraction = 0.694444  Min(alpha.water) = 0  Max(alpha.water) = 1.00086
MULES: Solving for alpha.water
Phase-1 volume fraction = 0.694444  Min(alpha.water) = 0  Max(alpha.water) = 1.00086
MULES: Solving for alpha.water
Phase-1 volume fraction = 0.694444  Min(alpha.water) = 0  Max(alpha.water) = 1.00086
GAMG:  Solving for p_rgh, Initial residual = 0.0120048, Final residual = 2.09596e-05, No Iterations 1
time step continuity errors : sum local = 0.0236461, global = -0.000291124, cumulative = -0.0142666
GAMG:  Solving for p_rgh, Initial residual = 2.65567e-05, Final residual = 1.23473e-07, No Iterations 4
time step continuity errors : sum local = 0.000138854, global = -6.10663e-05, cumulative = -0.0143276
GAMG:  Solving for p_rgh, Initial residual = 6.09824e-06, Final residual = 3.56328e-09, No Iterations 6
time step continuity errors : sum local = 4.01156e-06, global = -3.16851e-07, cumulative = -0.014328
ExecutionTime = 8.9 s  ClockTime = 9 s

Courant Number mean: 0.0332441 max: 0.691322
Interface Courant Number mean: 0.000923649 max: 0.670991
deltaT = 0.01875
Time = 0.88125

PIMPLE: iteration 1
MULES: Solving for alpha.water
Phase-1 volume fraction = 0.694444  Min(alpha.water) = 0  Max(alpha.water) = 1.00086
MULES: Solving for alpha.water
Phase-1 volume fraction = 0.694444  Min(alpha.water) = 0  Max(alpha.water) = 1.00086
MULES: Solving for alpha.water
Phase-1 volume fraction = 0.694444  Min(alpha.water) = 0  Max(alpha.water) = 1.00086
GAMG:  Solving for p_rgh, Initial residual = 0.0123635, Final residual = 2.12389e-05, No Iterations 1
time step continuity errors : sum local = 0.0238863, global = 8.3421e-05, cumulative = -0.0142445
GAMG:  Solving for p_rgh, Initial residual = 2.65837e-05, Final residual = 1.36746e-07, No Iterations 4
time step continuity errors : sum local = 0.000153219, global = -1.32211e-06, cumulative = -0.0142459
GAMG:  Solving for p_rgh, Initial residual = 5.72482e-06, Final residual = 5.45853e-09, No Iterations 5
time step continuity errors : sum local = 6.12584e-06, global = -7.64708e-08, cumulative = -0.0142459
ExecutionTime = 9.07 s  ClockTime = 9 s

Courant Number mean: 0.0340161 max: 0.729342
Interface Courant Number mean: 0.00095255 max: 0.675867
deltaT = 0.01875
Time = 0.9

PIMPLE: iteration 1
MULES: Solving for alpha.water
Phase-1 volume fraction = 0.694444  Min(alpha.water) = 0  Max(alpha.water) = 1.00086
MULES: Solving for alpha.water
Phase-1 volume fraction = 0.694444  Min(alpha.water) = 0  Max(alpha.water) = 1.00086
MULES: Solving for alpha.water
Phase-1 volume fraction = 0.694444  Min(alpha.water) = 0  Max(alpha.water) = 1.00086
GAMG:  Solving for p_rgh, Initial residual = 0.0128774, Final residual = 2.28545e-05, No Iterations 1
time step continuity errors : sum local = 0.0256401, global = 0.00019476, cumulative = -0.0140512
GAMG:  Solving for p_rgh, Initial residual = 2.83766e-05, Final residual = 1.05632e-07, No Iterations 4
time step continuity errors : sum local = 0.000118098, global = -3.59185e-05, cumulative = -0.0140871
GAMG:  Solving for p_rgh, Initial residual = 6.08524e-06, Final residual = 4.03536e-09, No Iterations 6
time step continuity errors : sum local = 4.5179e-06, global = -1.7152e-07, cumulative = -0.0140873
ExecutionTime = 9.23 s  ClockTime = 9 s

Courant Number mean: 0.0347834 max: 0.781553
Interface Courant Number mean: 0.000974508 max: 0.678516
deltaT = 0.02
Time = 0.92

PIMPLE: iteration 1
MULES: Solving for alpha.water
Phase-1 volume fraction = 0.694444  Min(alpha.water) = 0  Max(alpha.water) = 1.00085
MULES: Solving for alpha.water
Phase-1 volume fraction = 0.694444  Min(alpha.water) = 0  Max(alpha.water) = 1.00085
MULES: Solving for alpha.water
Phase-1 volume fraction = 0.694444  Min(alpha.water) = 0  Max(alpha.water) = 1.00085
GAMG:  Solving for p_rgh, Initial residual = 0.0139031, Final residual = 2.43867e-05, No Iterations 1
time step continuity errors : sum local = 0.0304409, global = 0.000377507, cumulative = -0.0137098
GAMG:  Solving for p_rgh, Initial residual = 3.08178e-05, Final residual = 1.78795e-07, No Iterations 4
time step continuity errors : sum local = 0.000222301, global = -1.49764e-06, cumulative = -0.0137113
GAMG:  Solving for p_rgh, Initial residual = 7.09726e-06, Final residual = 7.58132e-09, No Iterations 5
time step continuity errors : sum local = 9.43979e-06, global = 1.27248e-06, cumulative = -0.01371
ExecutionTime = 9.41 s  ClockTime = 10 s

Courant Number mean: 0.0380548 max: 0.919925
Interface Courant Number mean: 0.00107571 max: 0.732629
deltaT = 0.02
Time = 0.94

PIMPLE: iteration 1
MULES: Solving for alpha.water
Phase-1 volume fraction = 0.694444  Min(alpha.water) = 0  Max(alpha.water) = 1.00084
MULES: Solving for alpha.water
Phase-1 volume fraction = 0.694444  Min(alpha.water) = 0  Max(alpha.water) = 1.00083
MULES: Solving for alpha.water
Phase-1 volume fraction = 0.694444  Min(alpha.water) = 0  Max(alpha.water) = 1.00083
GAMG:  Solving for p_rgh, Initial residual = 0.0142511, Final residual = 2.58037e-05, No Iterations 1
time step continuity errors : sum local = 0.0321196, global = 0.000703597, cumulative = -0.0130064
GAMG:  Solving for p_rgh, Initial residual = 3.27656e-05, Final residual = 1.37536e-07, No Iterations 4
time step continuity errors : sum local = 0.000170632, global = -5.43097e-05, cumulative = -0.0130607
GAMG:  Solving for p_rgh, Initial residual = 7.70026e-06, Final residual = 5.0638e-09, No Iterations 6
time step continuity errors : sum local = 6.2877e-06, global = -1.66549e-07, cumulative = -0.0130609
ExecutionTime = 9.57 s  ClockTime = 10 s

Courant Number mean: 0.038945 max: 0.907765
Interface Courant Number mean: 0.00109044 max: 0.731592
deltaT = 0.02
Time = 0.96

PIMPLE: iteration 1
MULES: Solving for alpha.water
Phase-1 volume fraction = 0.694444  Min(alpha.water) = 0  Max(alpha.water) = 1.00082
MULES: Solving for alpha.water
Phase-1 volume fraction = 0.694444  Min(alpha.water) = 0  Max(alpha.water) = 1.00082
MULES: Solving for alpha.water
Phase-1 volume fraction = 0.694444  Min(alpha.water) = 0  Max(alpha.water) = 1.00082
GAMG:  Solving for p_rgh, Initial residual = 0.0150091, Final residual = 2.72248e-05, No Iterations 1
time step continuity errors : sum local = 0.0337927, global = 0.000393325, cumulative = -0.0126675
GAMG:  Solving for p_rgh, Initial residual = 3.4639e-05, Final residual = 2.13605e-07, No Iterations 4
time step continuity errors : sum local = 0.000264068, global = 5.44385e-06, cumulative = -0.0126621
GAMG:  Solving for p_rgh, Initial residual = 8.0855e-06, Final residual = 9.33413e-09, No Iterations 5
time step continuity errors : sum local = 1.15529e-05, global = 1.18733e-06, cumulative = -0.0126609
ExecutionTime = 9.73 s  ClockTime = 10 s

Courant Number mean: 0.0398803 max: 0.954162
Interface Courant Number mean: 0.00110601 max: 0.745314
deltaT = 0.02
Time = 0.98

PIMPLE: iteration 1
MULES: Solving for alpha.water
Phase-1 volume fraction = 0.694444  Min(alpha.water) = 0  Max(alpha.water) = 1.00081
MULES: Solving for alpha.water
Phase-1 volume fraction = 0.694444  Min(alpha.water) = 0  Max(alpha.water) = 1.00081
MULES: Solving for alpha.water
Phase-1 volume fraction = 0.694444  Min(alpha.water) = 0  Max(alpha.water) = 1.00082
GAMG:  Solving for p_rgh, Initial residual = 0.0153897, Final residual = 2.85474e-05, No Iterations 1
time step continuity errors : sum local = 0.0353034, global = 0.000410409, cumulative = -0.0122505
GAMG:  Solving for p_rgh, Initial residual = 3.68309e-05, Final residual = 1.39332e-07, No Iterations 4
time step continuity errors : sum local = 0.000171797, global = -5.72173e-05, cumulative = -0.0123077
GAMG:  Solving for p_rgh, Initial residual = 9.07501e-06, Final residual = 6.81459e-09, No Iterations 6
time step continuity errors : sum local = 8.40411e-06, global = -1.84678e-07, cumulative = -0.0123079
ExecutionTime = 9.91 s  ClockTime = 10 s

Courant Number mean: 0.0407589 max: 1.02191
Interface Courant Number mean: 0.00113532 max: 0.739089
deltaT = 0.02
Time = 1

PIMPLE: iteration 1
MULES: Solving for alpha.water
Phase-1 volume fraction = 0.694444  Min(alpha.water) = 0  Max(alpha.water) = 1.00082
MULES: Solving for alpha.water
Phase-1 volume fraction = 0.694444  Min(alpha.water) = 0  Max(alpha.water) = 1.00081
MULES: Solving for alpha.water
Phase-1 volume fraction = 0.694444  Min(alpha.water) = 0  Max(alpha.water) = 1.00081
GAMG:  Solving for p_rgh, Initial residual = 0.0159252, Final residual = 2.84695e-05, No Iterations 1
time step continuity errors : sum local = 0.0351071, global = 0.000652821, cumulative = -0.0116551
GAMG:  Solving for p_rgh, Initial residual = 3.6452e-05, Final residual = 2.35134e-07, No Iterations 4
time step continuity errors : sum local = 0.000288619, global = 1.17861e-05, cumulative = -0.0116433
GAMG:  Solving for p_rgh, Initial residual = 8.53856e-06, Final residual = 3.30374e-09, No Iterations 6
time step continuity errors : sum local = 4.06151e-06, global = 5.76198e-07, cumulative = -0.0116427
ExecutionTime = 10.09 s  ClockTime = 10 s

Courant Number mean: 0.0415172 max: 0.931419
Interface Courant Number mean: 0.00114955 max: 0.737404
deltaT = 0.02
Time = 1.02

PIMPLE: iteration 1
MULES: Solving for alpha.water
Phase-1 volume fraction = 0.694444  Min(alpha.water) = 0  Max(alpha.water) = 1.00081
MULES: Solving for alpha.water
Phase-1 volume fraction = 0.694444  Min(alpha.water) = 0  Max(alpha.water) = 1.00081
MULES: Solving for alpha.water
Phase-1 volume fraction = 0.694444  Min(alpha.water) = 0  Max(alpha.water) = 1.00081
GAMG:  Solving for p_rgh, Initial residual = 0.0166511, Final residual = 2.97514e-05, No Iterations 1
time step continuity errors : sum local = 0.0365843, global = 0.000461508, cumulative = -0.0111812
GAMG:  Solving for p_rgh, Initial residual = 3.82084e-05, Final residual = 1.36634e-07, No Iterations 4
time step continuity errors : sum local = 0.000167323, global = -5.63703e-05, cumulative = -0.0112376
GAMG:  Solving for p_rgh, Initial residual = 9.16981e-06, Final residual = 7.3014e-09, No Iterations 6
time step continuity errors : sum local = 8.95113e-06, global = 1.25942e-07, cumulative = -0.0112375
ExecutionTime = 10.26 s  ClockTime = 10 s

Courant Number mean: 0.042391 max: 1.05843
Interface Courant Number mean: 0.0012087 max: 0.727896
deltaT = 0.016
Time = 1.036

PIMPLE: iteration 1
MULES: Solving for alpha.water
Phase-1 volume fraction = 0.694444  Min(alpha.water) = 0  Max(alpha.water) = 1.00081
MULES: Solving for alpha.water
Phase-1 volume fraction = 0.694444  Min(alpha.water) = 0  Max(alpha.water) = 1.00081
MULES: Solving for alpha.water
Phase-1 volume fraction = 0.694444  Min(alpha.water) = 0  Max(alpha.water) = 1.00081
GAMG:  Solving for p_rgh, Initial residual = 0.0141999, Final residual = 2.5461e-05, No Iterations 1
time step continuity errors : sum local = 0.0212542, global = 0.000429131, cumulative = -0.0108083
GAMG:  Solving for p_rgh, Initial residual = 3.12237e-05, Final residual = 2.03408e-07, No Iterations 4
time step continuity errors : sum local = 0.000169275, global = 7.70364e-06, cumulative = -0.0108006
GAMG:  Solving for p_rgh, Initial residual = 6.36535e-06, Final residual = 8.34747e-09, No Iterations 5
time step continuity errors : sum local = 6.95188e-06, global = 1.49547e-06, cumulative = -0.0107991
ExecutionTime = 10.42 s  ClockTime = 11 s

Courant Number mean: 0.0343812 max: 0.699794
Interface Courant Number mean: 0.000985907 max: 0.584792
deltaT = 0.016
Time = 1.052

PIMPLE: iteration 1
MULES: Solving for alpha.water
Phase-1 volume fraction = 0.694444  Min(alpha.water) = 0  Max(alpha.water) = 1.0008
MULES: Solving for alpha.water
Phase-1 volume fraction = 0.694444  Min(alpha.water) = 0  Max(alpha.water) = 1.0008
MULES: Solving for alpha.water
Phase-1 volume fraction = 0.694444  Min(alpha.water) = 0  Max(alpha.water) = 1.00079
GAMG:  Solving for p_rgh, Initial residual = 0.0147306, Final residual = 2.71247e-05, No Iterations 1
time step continuity errors : sum local = 0.0226047, global = 0.000562595, cumulative = -0.0102365
GAMG:  Solving for p_rgh, Initial residual = 3.36293e-05, Final residual = 1.32961e-07, No Iterations 4
time step continuity errors : sum local = 0.00011038, global = -2.54098e-05, cumulative = -0.0102619
GAMG:  Solving for p_rgh, Initial residual = 7.08364e-06, Final residual = 5.2117e-09, No Iterations 6
time step continuity errors : sum local = 4.33074e-06, global = -4.23122e-07, cumulative = -0.0102624
ExecutionTime = 10.59 s  ClockTime = 11 s

Courant Number mean: 0.0347999 max: 0.654127
Interface Courant Number mean: 0.00100996 max: 0.589433
deltaT = 0.016
Time = 1.068

PIMPLE: iteration 1
MULES: Solving for alpha.water
Phase-1 volume fraction = 0.694444  Min(alpha.water) = 0  Max(alpha.water) = 1.00079
MULES: Solving for alpha.water
Phase-1 volume fraction = 0.694444  Min(alpha.water) = 0  Max(alpha.water) = 1.00079
MULES: Solving for alpha.water
Phase-1 volume fraction = 0.694444  Min(alpha.water) = 0  Max(alpha.water) = 1.00079
GAMG:  Solving for p_rgh, Initial residual = 0.0149064, Final residual = 2.68039e-05, No Iterations 1
time step continuity errors : sum local = 0.0222391, global = 0.000484391, cumulative = -0.00977797
GAMG:  Solving for p_rgh, Initial residual = 3.30537e-05, Final residual = 1.92945e-07, No Iterations 4
time step continuity errors : sum local = 0.000159646, global = 2.11165e-05, cumulative = -0.00975686
GAMG:  Solving for p_rgh, Initial residual = 6.83369e-06, Final residual = 8.79848e-09, No Iterations 5
time step continuity errors : sum local = 7.28157e-06, global = 1.06665e-06, cumulative = -0.00975579
ExecutionTime = 10.77 s  ClockTime = 11 s

Courant Number mean: 0.0353083 max: 0.749764
Interface Courant Number mean: 0.00103659 max: 0.578
deltaT = 0.016
Time = 1.084

PIMPLE: iteration 1
MULES: Solving for alpha.water
Phase-1 volume fraction = 0.694444  Min(alpha.water) = 0  Max(alpha.water) = 1.00078
MULES: Solving for alpha.water
Phase-1 volume fraction = 0.694444  Min(alpha.water) = 0  Max(alpha.water) = 1.00078
MULES: Solving for alpha.water
Phase-1 volume fraction = 0.694444  Min(alpha.water) = 0  Max(alpha.water) = 1.00077
GAMG:  Solving for p_rgh, Initial residual = 0.0153429, Final residual = 2.76927e-05, No Iterations 1
time step continuity errors : sum local = 0.0229239, global = 0.00041552, cumulative = -0.00934027
GAMG:  Solving for p_rgh, Initial residual = 3.40959e-05, Final residual = 1.03992e-07, No Iterations 4
time step continuity errors : sum local = 8.58708e-05, global = -1.22026e-05, cumulative = -0.00935247
GAMG:  Solving for p_rgh, Initial residual = 7.17339e-06, Final residual = 5.47944e-09, No Iterations 6
time step continuity errors : sum local = 4.52418e-06, global = -6.07466e-07, cumulative = -0.00935308
ExecutionTime = 10.94 s  ClockTime = 11 s

Courant Number mean: 0.0357429 max: 0.740309
Interface Courant Number mean: 0.00105221 max: 0.57273
deltaT = 0.016
Time = 1.1

PIMPLE: iteration 1
MULES: Solving for alpha.water
Phase-1 volume fraction = 0.694444  Min(alpha.water) = 0  Max(alpha.water) = 1.00077
MULES: Solving for alpha.water
Phase-1 volume fraction = 0.694444  Min(alpha.water) = 0  Max(alpha.water) = 1.00077
MULES: Solving for alpha.water
Phase-1 volume fraction = 0.694444  Min(alpha.water) = 0  Max(alpha.water) = 1.00077
GAMG:  Solving for p_rgh, Initial residual = 0.0154505, Final residual = 2.98401e-05, No Iterations 1
time step continuity errors : sum local = 0.0245948, global = 0.00061139, cumulative = -0.00874169
GAMG:  Solving for p_rgh, Initial residual = 3.66647e-05, Final residual = 1.84373e-07, No Iterations 4
time step continuity errors : sum local = 0.000151519, global = 3.06871e-05, cumulative = -0.008711
GAMG:  Solving for p_rgh, Initial residual = 7.61428e-06, Final residual = 9.03944e-09, No Iterations 5
time step continuity errors : sum local = 7.42664e-06, global = 1.08733e-06, cumulative = -0.00870992
ExecutionTime = 11.12 s  ClockTime = 11 s

Courant Number mean: 0.0362765 max: 0.769016
Interface Courant Number mean: 0.00108328 max: 0.597925
deltaT = 0.0166667
Time = 1.11667

PIMPLE: iteration 1
MULES: Solving for alpha.water
Phase-1 volume fraction = 0.694444  Min(alpha.water) = 0  Max(alpha.water) = 1.00076
MULES: Solving for alpha.water
Phase-1 volume fraction = 0.694444  Min(alpha.water) = 0  Max(alpha.water) = 1.00075
MULES: Solving for alpha.water
Phase-1 volume fraction = 0.694444  Min(alpha.water) = 0  Max(alpha.water) = 1.00075
GAMG:  Solving for p_rgh, Initial residual = 0.0164672, Final residual = 3.14203e-05, No Iterations 1
time step continuity errors : sum local = 0.0276994, global = 0.000595437, cumulative = -0.00811448
GAMG:  Solving for p_rgh, Initial residual = 3.91422e-05, Final residual = 1.03467e-07, No Iterations 4
[...]
Phase-1 volume fraction = 0.694444  Min(alpha.water) = -7.54176e-12  Max(alpha.water) = 1.00045
MULES: Solving for alpha.water
Phase-1 volume fraction = 0.694444  Min(alpha.water) = -7.3909e-12  Max(alpha.water) = 1.00045
MULES: Solving for alpha.water
Phase-1 volume fraction = 0.694444  Min(alpha.water) = -7.23919e-12  Max(alpha.water) = 1.00045
GAMG:  Solving for p_rgh, Initial residual = 0.0441316, Final residual = 0.000102749, No Iterations 1
time step continuity errors : sum local = 0.0132041, global = 0.000192961, cumulative = 0.75782
GAMG:  Solving for p_rgh, Initial residual = 0.000116489, Final residual = 7.09996e-07, No Iterations 4
time step continuity errors : sum local = 9.04774e-05, global = 2.48303e-06, cumulative = 0.757823
GAMG:  Solving for p_rgh, Initial residual = 1.71363e-05, Final residual = 9.6099e-09, No Iterations 6
time step continuity errors : sum local = 1.22556e-06, global = -1.35891e-07, cumulative = 0.757823
ExecutionTime = 270.71 s  ClockTime = 275 s

Courant Number mean: 0.0646797 max: 0.874464
Interface Courant Number mean: 0.00173427 max: 0.426654
deltaT = 0.00728291
Time = 15.8345

PIMPLE: iteration 1
MULES: Solving for alpha.water
Phase-1 volume fraction = 0.694444  Min(alpha.water) = -7.08844e-12  Max(alpha.water) = 1.00045
MULES: Solving for alpha.water
Phase-1 volume fraction = 0.694444  Min(alpha.water) = -6.9373e-12  Max(alpha.water) = 1.00045
MULES: Solving for alpha.water
Phase-1 volume fraction = 0.694444  Min(alpha.water) = -6.78599e-12  Max(alpha.water) = 1.00045
GAMG:  Solving for p_rgh, Initial residual = 0.0444506, Final residual = 9.08933e-05, No Iterations 1
time step continuity errors : sum local = 0.0116765, global = 0.00017375, cumulative = 0.757996
GAMG:  Solving for p_rgh, Initial residual = 0.000102602, Final residual = 8.87087e-07, No Iterations 4
time step continuity errors : sum local = 0.00011309, global = 1.25931e-05, cumulative = 0.758009
GAMG:  Solving for p_rgh, Initial residual = 1.44879e-05, Final residual = 7.084e-09, No Iterations 6
time step continuity errors : sum local = 9.03793e-07, global = -2.30161e-07, cumulative = 0.758009
ExecutionTime = 270.87 s  ClockTime = 275 s

Courant Number mean: 0.064507 max: 0.837774
Interface Courant Number mean: 0.00173045 max: 0.420935
deltaT = 0.00819328
Time = 15.8426

PIMPLE: iteration 1
MULES: Solving for alpha.water
Phase-1 volume fraction = 0.694444  Min(alpha.water) = -6.61732e-12  Max(alpha.water) = 1.00045
MULES: Solving for alpha.water
Phase-1 volume fraction = 0.694444  Min(alpha.water) = -6.4489e-12  Max(alpha.water) = 1.00045
MULES: Solving for alpha.water
Phase-1 volume fraction = 0.694444  Min(alpha.water) = -6.41302e-12  Max(alpha.water) = 1.00045
GAMG:  Solving for p_rgh, Initial residual = 0.0489464, Final residual = 0.000113331, No Iterations 1
time step continuity errors : sum local = 0.0182371, global = -0.000121209, cumulative = 0.757888
GAMG:  Solving for p_rgh, Initial residual = 0.0001284, Final residual = 7.45462e-07, No Iterations 4
time step continuity errors : sum local = 0.000118792, global = 2.55258e-06, cumulative = 0.75789
GAMG:  Solving for p_rgh, Initial residual = 1.86747e-05, Final residual = 3.29628e-09, No Iterations 7
time step continuity errors : sum local = 5.25731e-07, global = 5.2159e-08, cumulative = 0.75789
ExecutionTime = 271.04 s  ClockTime = 276 s

Courant Number mean: 0.0723522 max: 0.831408
Interface Courant Number mean: 0.00193397 max: 0.495012
deltaT = 0.00955882
Time = 15.8522

PIMPLE: iteration 1
MULES: Solving for alpha.water
Phase-1 volume fraction = 0.694444  Min(alpha.water) = -6.37711e-12  Max(alpha.water) = 1.00045
MULES: Solving for alpha.water
Phase-1 volume fraction = 0.694444  Min(alpha.water) = -6.3319e-12  Max(alpha.water) = 1.00045
MULES: Solving for alpha.water
Phase-1 volume fraction = 0.694444  Min(alpha.water) = -6.27801e-12  Max(alpha.water) = 1.00045
GAMG:  Solving for p_rgh, Initial residual = 0.0542134, Final residual = 0.000112357, No Iterations 1
time step continuity errors : sum local = 0.0242331, global = 0.000384692, cumulative = 0.758275
GAMG:  Solving for p_rgh, Initial residual = 0.000130677, Final residual = 9.9469e-07, No Iterations 4
time step continuity errors : sum local = 0.000212056, global = 2.94031e-05, cumulative = 0.758304
GAMG:  Solving for p_rgh, Initial residual = 2.14061e-05, Final residual = 9.009e-09, No Iterations 6
time step continuity errors : sum local = 1.92319e-06, global = -4.48325e-07, cumulative = 0.758304
ExecutionTime = 271.2 s  ClockTime = 276 s

Courant Number mean: 0.0841307 max: 0.901607
Interface Courant Number mean: 0.00223388 max: 0.565622
deltaT = 0.00955882
Time = 15.8618

PIMPLE: iteration 1
MULES: Solving for alpha.water
Phase-1 volume fraction = 0.694444  Min(alpha.water) = -6.21635e-12  Max(alpha.water) = 1.00045
MULES: Solving for alpha.water
Phase-1 volume fraction = 0.694444  Min(alpha.water) = -1.69591e-10  Max(alpha.water) = 1.00045
MULES: Solving for alpha.water
Phase-1 volume fraction = 0.694444  Min(alpha.water) = -1.61981e-10  Max(alpha.water) = 1.00045
GAMG:  Solving for p_rgh, Initial residual = 0.0533326, Final residual = 0.000124826, No Iterations 1
time step continuity errors : sum local = 0.0270114, global = -0.000299464, cumulative = 0.758004
GAMG:  Solving for p_rgh, Initial residual = 0.000146317, Final residual = 9.0493e-07, No Iterations 4
time step continuity errors : sum local = 0.000193286, global = 6.42717e-06, cumulative = 0.758011
GAMG:  Solving for p_rgh, Initial residual = 2.6139e-05, Final residual = 7.07648e-09, No Iterations 7
time step continuity errors : sum local = 1.51598e-06, global = 1.68439e-08, cumulative = 0.758011
ExecutionTime = 271.37 s  ClockTime = 276 s

Courant Number mean: 0.083818 max: 0.740917
Interface Courant Number mean: 0.00221634 max: 0.552773
deltaT = 0.00955882
Time = 15.8713

PIMPLE: iteration 1
MULES: Solving for alpha.water
Phase-1 volume fraction = 0.694444  Min(alpha.water) = -1.54708e-10  Max(alpha.water) = 1.00045
MULES: Solving for alpha.water
Phase-1 volume fraction = 0.694444  Min(alpha.water) = -1.47761e-10  Max(alpha.water) = 1.00045
MULES: Solving for alpha.water
Phase-1 volume fraction = 0.694444  Min(alpha.water) = -1.41126e-10  Max(alpha.water) = 1.00045
GAMG:  Solving for p_rgh, Initial residual = 0.0538477, Final residual = 0.000107644, No Iterations 1
time step continuity errors : sum local = 0.0234898, global = 0.000207514, cumulative = 0.758218
GAMG:  Solving for p_rgh, Initial residual = 0.000124877, Final residual = 9.17033e-07, No Iterations 4
time step continuity errors : sum local = 0.000197606, global = 2.71374e-05, cumulative = 0.758246
GAMG:  Solving for p_rgh, Initial residual = 2.073e-05, Final residual = 3.81739e-09, No Iterations 7
time step continuity errors : sum local = 8.24027e-07, global = -2.48134e-07, cumulative = 0.758245
ExecutionTime = 271.54 s  ClockTime = 276 s

Courant Number mean: 0.0835285 max: 0.74654
Interface Courant Number mean: 0.00221162 max: 0.562954
deltaT = 0.00955882
Time = 15.8809

PIMPLE: iteration 1
MULES: Solving for alpha.water
Phase-1 volume fraction = 0.694444  Min(alpha.water) = -1.34952e-10  Max(alpha.water) = 1.00045
MULES: Solving for alpha.water
Phase-1 volume fraction = 0.694444  Min(alpha.water) = -1.29047e-10  Max(alpha.water) = 1.00045
MULES: Solving for alpha.water
Phase-1 volume fraction = 0.694444  Min(alpha.water) = -1.234e-10  Max(alpha.water) = 1.00045
GAMG:  Solving for p_rgh, Initial residual = 0.0533853, Final residual = 0.000118394, No Iterations 1
time step continuity errors : sum local = 0.0257233, global = -0.000226719, cumulative = 0.758019
GAMG:  Solving for p_rgh, Initial residual = 0.000139676, Final residual = 8.67607e-07, No Iterations 4
time step continuity errors : sum local = 0.000186137, global = 3.82887e-06, cumulative = 0.758022
GAMG:  Solving for p_rgh, Initial residual = 2.57994e-05, Final residual = 6.60576e-09, No Iterations 7
time step continuity errors : sum local = 1.41863e-06, global = -3.01297e-08, cumulative = 0.758022
ExecutionTime = 271.7 s  ClockTime = 276 s

Courant Number mean: 0.0832493 max: 0.777388
Interface Courant Number mean: 0.00219603 max: 0.555029
deltaT = 0.00955882
Time = 15.8904

PIMPLE: iteration 1
MULES: Solving for alpha.water
Phase-1 volume fraction = 0.694444  Min(alpha.water) = -1.1808e-10  Max(alpha.water) = 1.00045
MULES: Solving for alpha.water
Phase-1 volume fraction = 0.694444  Min(alpha.water) = -1.12989e-10  Max(alpha.water) = 1.00045
MULES: Solving for alpha.water
Phase-1 volume fraction = 0.694444  Min(alpha.water) = -1.08118e-10  Max(alpha.water) = 1.00045
GAMG:  Solving for p_rgh, Initial residual = 0.0537287, Final residual = 0.000109371, No Iterations 1
time step continuity errors : sum local = 0.0236106, global = 0.000320969, cumulative = 0.758343
GAMG:  Solving for p_rgh, Initial residual = 0.000127313, Final residual = 1.04541e-06, No Iterations 4
time step continuity errors : sum local = 0.000222772, global = 3.47116e-05, cumulative = 0.758378
GAMG:  Solving for p_rgh, Initial residual = 2.1619e-05, Final residual = 3.97394e-09, No Iterations 7
time step continuity errors : sum local = 8.47771e-07, global = -2.61486e-07, cumulative = 0.758378
ExecutionTime = 271.86 s  ClockTime = 276 s

Courant Number mean: 0.0829679 max: 0.7819
Interface Courant Number mean: 0.00221435 max: 0.552635
deltaT = 0.00955882
Time = 15.9

PIMPLE: iteration 1
MULES: Solving for alpha.water
Phase-1 volume fraction = 0.694444  Min(alpha.water) = -1.03497e-10  Max(alpha.water) = 1.00045
MULES: Solving for alpha.water
Phase-1 volume fraction = 0.694444  Min(alpha.water) = -9.90728e-11  Max(alpha.water) = 1.00045
MULES: Solving for alpha.water
Phase-1 volume fraction = 0.694444  Min(alpha.water) = -9.48373e-11  Max(alpha.water) = 1.00045
GAMG:  Solving for p_rgh, Initial residual = 0.0537191, Final residual = 0.00012448, No Iterations 1
time step continuity errors : sum local = 0.0267535, global = -0.000101504, cumulative = 0.758276
GAMG:  Solving for p_rgh, Initial residual = 0.000148188, Final residual = 7.09236e-07, No Iterations 4
time step continuity errors : sum local = 0.000150519, global = 1.55308e-05, cumulative = 0.758292
GAMG:  Solving for p_rgh, Initial residual = 2.78417e-05, Final residual = 7.16284e-09, No Iterations 7
time step continuity errors : sum local = 1.52173e-06, global = -1.23463e-07, cumulative = 0.758292
ExecutionTime = 272.02 s  ClockTime = 277 s

Courant Number mean: 0.0827512 max: 0.837641
Interface Courant Number mean: 0.0022302 max: 0.550667
deltaT = 0.01
Time = 15.91

PIMPLE: iteration 1
MULES: Solving for alpha.water
Phase-1 volume fraction = 0.694444  Min(alpha.water) = -9.06184e-11  Max(alpha.water) = 1.00045
MULES: Solving for alpha.water
Phase-1 volume fraction = 0.694444  Min(alpha.water) = -8.65865e-11  Max(alpha.water) = 1.00045
MULES: Solving for alpha.water
Phase-1 volume fraction = 0.694444  Min(alpha.water) = -8.27332e-11  Max(alpha.water) = 1.0005
GAMG:  Solving for p_rgh, Initial residual = 0.0556296, Final residual = 0.000112163, No Iterations 1
time step continuity errors : sum local = 0.0262474, global = 0.000215693, cumulative = 0.758507
GAMG:  Solving for p_rgh, Initial residual = 0.000131704, Final residual = 1.17386e-06, No Iterations 4
time step continuity errors : sum local = 0.000271314, global = 3.30868e-05, cumulative = 0.75854
GAMG:  Solving for p_rgh, Initial residual = 2.28694e-05, Final residual = 5.69981e-09, No Iterations 7
time step continuity errors : sum local = 1.31848e-06, global = -3.50934e-07, cumulative = 0.75854
ExecutionTime = 272.18 s  ClockTime = 277 s

Courant Number mean: 0.0862586 max: 0.853476
Interface Courant Number mean: 0.00230025 max: 0.57385
deltaT = 0.01
Time = 15.92

PIMPLE: iteration 1
MULES: Solving for alpha.water
Phase-1 volume fraction = 0.694444  Min(alpha.water) = -7.90657e-11  Max(alpha.water) = 1.00047
MULES: Solving for alpha.water
Phase-1 volume fraction = 0.694444  Min(alpha.water) = -7.55601e-11  Max(alpha.water) = 1.00045
MULES: Solving for alpha.water
Phase-1 volume fraction = 0.694444  Min(alpha.water) = -7.22092e-11  Max(alpha.water) = 1.00045
GAMG:  Solving for p_rgh, Initial residual = 0.0556817, Final residual = 0.000112579, No Iterations 1
time step continuity errors : sum local = 0.0263511, global = 0.000170935, cumulative = 0.758711
GAMG:  Solving for p_rgh, Initial residual = 0.000132571, Final residual = 3.37198e-07, No Iterations 4
time step continuity errors : sum local = 7.81506e-05, global = 1.73817e-05, cumulative = 0.758728
GAMG:  Solving for p_rgh, Initial residual = 2.4009e-05, Final residual = 4.29144e-09, No Iterations 7
time step continuity errors : sum local = 9.93003e-07, global = -2.06172e-07, cumulative = 0.758728
ExecutionTime = 272.34 s  ClockTime = 277 s

Courant Number mean: 0.0859742 max: 0.825798
Interface Courant Number mean: 0.00227397 max: 0.572095
deltaT = 0.0114286
Time = 15.9314

PIMPLE: iteration 1
MULES: Solving for alpha.water
Phase-1 volume fraction = 0.694444  Min(alpha.water) = -6.8562e-11  Max(alpha.water) = 1.00057
MULES: Solving for alpha.water
Phase-1 volume fraction = 0.694444  Min(alpha.water) = -6.50981e-11  Max(alpha.water) = 1.00075
MULES: Solving for alpha.water
Phase-1 volume fraction = 0.694444  Min(alpha.water) = -6.18083e-11  Max(alpha.water) = 1.00091
GAMG:  Solving for p_rgh, Initial residual = 0.0610953, Final residual = 0.00012328, No Iterations 1
time step continuity errors : sum local = 0.0369782, global = 0.000530177, cumulative = 0.759258
GAMG:  Solving for p_rgh, Initial residual = 0.000146598, Final residual = 1.12914e-06, No Iterations 4
time step continuity errors : sum local = 0.000334579, global = 6.21591e-05, cumulative = 0.759321
GAMG:  Solving for p_rgh, Initial residual = 2.74068e-05, Final residual = 7.8715e-09, No Iterations 6
time step continuity errors : sum local = 2.32942e-06, global = -7.64744e-07, cumulative = 0.75932
ExecutionTime = 272.5 s  ClockTime = 277 s

Courant Number mean: 0.0978759 max: 0.945296
Interface Courant Number mean: 0.00262348 max: 0.652679
deltaT = 0.0114286
Time = 15.9429

PIMPLE: iteration 1
MULES: Solving for alpha.water
Phase-1 volume fraction = 0.694444  Min(alpha.water) = -5.86983e-11  Max(alpha.water) = 1.00078
MULES: Solving for alpha.water
Phase-1 volume fraction = 0.694444  Min(alpha.water) = -5.57438e-11  Max(alpha.water) = 1.00089
MULES: Solving for alpha.water
Phase-1 volume fraction = 0.694444  Min(alpha.water) = -5.29371e-11  Max(alpha.water) = 1.00099
GAMG:  Solving for p_rgh, Initial residual = 0.0611564, Final residual = 0.000124486, No Iterations 1
time step continuity errors : sum local = 0.037242, global = 0.000912666, cumulative = 0.760232
GAMG:  Solving for p_rgh, Initial residual = 0.000148246, Final residual = 6.46656e-07, No Iterations 4
time step continuity errors : sum local = 0.000191368, global = 5.36147e-05, cumulative = 0.760286
GAMG:  Solving for p_rgh, Initial residual = 2.87708e-05, Final residual = 7.39434e-09, No Iterations 7
time step continuity errors : sum local = 2.18424e-06, global = -3.1028e-07, cumulative = 0.760286
ExecutionTime = 272.66 s  ClockTime = 277 s

Courant Number mean: 0.0975257 max: 0.976923
Interface Courant Number mean: 0.00261479 max: 0.652766
deltaT = 0.0114286
Time = 15.9543

PIMPLE: iteration 1
MULES: Solving for alpha.water
Phase-1 volume fraction = 0.694444  Min(alpha.water) = -5.02862e-11  Max(alpha.water) = 1.00082
MULES: Solving for alpha.water
Phase-1 volume fraction = 0.694444  Min(alpha.water) = -4.77671e-11  Max(alpha.water) = 1.00085
MULES: Solving for alpha.water
Phase-1 volume fraction = 0.694444  Min(alpha.water) = -4.53732e-11  Max(alpha.water) = 1.00105
GAMG:  Solving for p_rgh, Initial residual = 0.0607224, Final residual = 0.000122711, No Iterations 1
time step continuity errors : sum local = 0.0366178, global = 0.000480427, cumulative = 0.760766
GAMG:  Solving for p_rgh, Initial residual = 0.000145745, Final residual = 1.27777e-06, No Iterations 4
time step continuity errors : sum local = 0.000376556, global = 6.78994e-05, cumulative = 0.760834
GAMG:  Solving for p_rgh, Initial residual = 2.72599e-05, Final residual = 3.2845e-09, No Iterations 7
time step continuity errors : sum local = 9.67598e-07, global = -2.00631e-07, cumulative = 0.760834
ExecutionTime = 272.81 s  ClockTime = 277 s

Courant Number mean: 0.097132 max: 0.948381
Interface Courant Number mean: 0.00259372 max: 0.65201
deltaT = 0.0114286
Time = 15.9657

PIMPLE: iteration 1
MULES: Solving for alpha.water
Phase-1 volume fraction = 0.694444  Min(alpha.water) = -4.31146e-11  Max(alpha.water) = 1.00097
MULES: Solving for alpha.water
Phase-1 volume fraction = 0.694444  Min(alpha.water) = -4.09674e-11  Max(alpha.water) = 1.0009
MULES: Solving for alpha.water
Phase-1 volume fraction = 0.694444  Min(alpha.water) = -3.89261e-11  Max(alpha.water) = 1.00082
GAMG:  Solving for p_rgh, Initial residual = 0.0606386, Final residual = 0.000123518, No Iterations 1
time step continuity errors : sum local = 0.036882, global = 0.000552837, cumulative = 0.761387
GAMG:  Solving for p_rgh, Initial residual = 0.000147567, Final residual = 7.92555e-07, No Iterations 4
time step continuity errors : sum local = 0.000233496, global = 4.98915e-05, cumulative = 0.761437
GAMG:  Solving for p_rgh, Initial residual = 2.88369e-05, Final residual = 9.28546e-09, No Iterations 7
time step continuity errors : sum local = 2.73635e-06, global = -3.78281e-07, cumulative = 0.761436
ExecutionTime = 272.97 s  ClockTime = 278 s

Courant Number mean: 0.0968031 max: 1.01211
Interface Courant Number mean: 0.0025861 max: 0.65195
deltaT = 0.0114286
Time = 15.9771

PIMPLE: iteration 1
MULES: Solving for alpha.water
Phase-1 volume fraction = 0.694444  Min(alpha.water) = -3.70009e-11  Max(alpha.water) = 1.00072
MULES: Solving for alpha.water
Phase-1 volume fraction = 0.694444  Min(alpha.water) = -3.51699e-11  Max(alpha.water) = 1.00065
MULES: Solving for alpha.water
Phase-1 volume fraction = 0.694444  Min(alpha.water) = -3.34284e-11  Max(alpha.water) = 1.00062
GAMG:  Solving for p_rgh, Initial residual = 0.0608294, Final residual = 0.000127333, No Iterations 1
time step continuity errors : sum local = 0.0380669, global = 0.000559154, cumulative = 0.761995
GAMG:  Solving for p_rgh, Initial residual = 0.000150329, Final residual = 1.24668e-06, No Iterations 4
time step continuity errors : sum local = 0.000368183, global = 7.30064e-05, cumulative = 0.762068
GAMG:  Solving for p_rgh, Initial residual = 2.79558e-05, Final residual = 3.5546e-09, No Iterations 8
time step continuity errors : sum local = 1.04869e-06, global = -3.22949e-07, cumulative = 0.762068
ExecutionTime = 273.12 s  ClockTime = 278 s

Courant Number mean: 0.0964364 max: 0.987473
Interface Courant Number mean: 0.00257217 max: 0.650773
deltaT = 0.0114286
Time = 15.9886

PIMPLE: iteration 1
MULES: Solving for alpha.water
Phase-1 volume fraction = 0.694444  Min(alpha.water) = -3.1786e-11  Max(alpha.water) = 1.0006
MULES: Solving for alpha.water
Phase-1 volume fraction = 0.694444  Min(alpha.water) = -3.02233e-11  Max(alpha.water) = 1.00058
MULES: Solving for alpha.water
Phase-1 volume fraction = 0.694444  Min(alpha.water) = -2.87363e-11  Max(alpha.water) = 1.00055
GAMG:  Solving for p_rgh, Initial residual = 0.0610298, Final residual = 0.000125199, No Iterations 1
time step continuity errors : sum local = 0.0374078, global = 0.000750386, cumulative = 0.762818
GAMG:  Solving for p_rgh, Initial residual = 0.000149686, Final residual = 9.35295e-07, No Iterations 4
time step continuity errors : sum local = 0.000275842, global = 6.22966e-05, cumulative = 0.762881
GAMG:  Solving for p_rgh, Initial residual = 2.96226e-05, Final residual = 6.89206e-09, No Iterations 7
time step continuity errors : sum local = 2.0328e-06, global = -2.59497e-07, cumulative = 0.76288
ExecutionTime = 273.28 s  ClockTime = 278 s

End

Finalising parallel run
