/*---------------------------------------------------------------------------*\
| =========                 |                                                 |
| \\      /  F ield         | OpenFOAM: The Open Source CFD Toolbox           |
|  \\    /   O peration     | Version:  plus                                  |
|   \\  /    A nd           | Web:      www.OpenFOAM.com                      |
|    \\/     M anipulation  |                                                 |
\*---------------------------------------------------------------------------*/
Build  : plus-6355554d1aee
Arch   : "LSB;label=32;scalar=64"
Exec   : decomposePar -force
Date   : Dec 05 2017
Time   : 14:46:17
Host   : "stokes"
PID    : 22249
Case   : /home/pal/OpenFOAM/pal-plus/bin/impulsewavecurrent/TestCases/WavesWithCyclic/WithVerticalBeach
nProcs : 1
sigFpe : Enabling floating point exception trapping (FOAM_SIGFPE).
fileModificationChecking : Monitoring run-time modified files using timeStampMaster (fileModificationSkew 10)
allowSystemOperations : Allowing user-supplied system call operations

// * * * * * * * * * * * * * * * * * * * * * * * * * * * * * * * * * * * * * //
Create time

--> FOAM Warning : 
    From function void* Foam::dlOpen(const Foam::fileName&, bool)
    in file POSIX.C at line 1321
    dlopen error : libwavesampling.so: cannot open shared object file: No such file or directory
--> FOAM Warning : 
    From function bool Foam::dlLibraryTable::open(const Foam::fileName&, bool)
    in file db/dynamicLibrary/dlLibraryTable/dlLibraryTable.C at line 101
    could not load "libwavesampling.so"
--> FOAM Warning : 
    From function virtual void Foam::Time::readDict()
    in file db/Time/TimeIO.C at line 358
    Reading "/home/pal/OpenFOAM/pal-plus/bin/impulsewavecurrent/TestCases/WavesWithCyclic/WithVerticalBeach/system/controlDict" at line 18
    Selecting compressed binary is inefficient and ineffective, resetting to uncompressed binary


Decomposing mesh region0

Create mesh

Calculating distribution of cells
Selecting decompositionMethod scotch

Finished decomposition in 0.08 s

Calculating original mesh data

Distributing cells to processors

Distributing faces to processors

Distributing points to processors

Constructing processor meshes
--> FOAM Warning : 
    From function void* Foam::dlOpen(const Foam::fileName&, bool)
    in file POSIX.C at line 1321
    dlopen error : libwavesampling.so: cannot open shared object file: No such file or directory
--> FOAM Warning : 
    From function bool Foam::dlLibraryTable::open(const Foam::fileName&, bool)
    in file db/dynamicLibrary/dlLibraryTable/dlLibraryTable.C at line 101
    could not load "libwavesampling.so"
--> FOAM Warning : 
    From function virtual void Foam::Time::readDict()
    in file db/Time/TimeIO.C at line 358
    Reading "/home/pal/OpenFOAM/pal-plus/bin/impulsewavecurrent/TestCases/WavesWithCyclic/WithVerticalBeach/system/controlDict" at line 18
    Selecting compressed binary is inefficient and ineffective, resetting to uncompressed binary

Processor 0
    Number of cells = 17061
    Number of faces shared with processor 1 = 62
    Number of faces shared with processor 2 = 63
    Number of processor patches = 2
    Number of processor faces = 125
    Number of boundary faces = 34673
--> FOAM Warning : 
    From function void* Foam::dlOpen(const Foam::fileName&, bool)
    in file POSIX.C at line 1321
    dlopen error : libwavesampling.so: cannot open shared object file: No such file or directory
--> FOAM Warning : 
    From function bool Foam::dlLibraryTable::open(const Foam::fileName&, bool)
    in file db/dynamicLibrary/dlLibraryTable/dlLibraryTable.C at line 101
    could not load "libwavesampling.so"
--> FOAM Warning : 
    From function virtual void Foam::Time::readDict()
    in file db/Time/TimeIO.C at line 358
    Reading "/home/pal/OpenFOAM/pal-plus/bin/impulsewavecurrent/TestCases/WavesWithCyclic/WithVerticalBeach/system/controlDict" at line 18
    Selecting compressed binary is inefficient and ineffective, resetting to uncompressed binary

Processor 1
    Number of cells = 17322
    Number of faces shared with processor 0 = 62
    Number of faces shared with processor 2 = 85
    Number of processor patches = 2
    Number of processor faces = 147
    Number of boundary faces = 35325
--> FOAM Warning : 
    From function void* Foam::dlOpen(const Foam::fileName&, bool)
    in file POSIX.C at line 1321
    dlopen error : libwavesampling.so: cannot open shared object file: No such file or directory
--> FOAM Warning : 
    From function bool Foam::dlLibraryTable::open(const Foam::fileName&, bool)
    in file db/dynamicLibrary/dlLibraryTable/dlLibraryTable.C at line 101
    could not load "libwavesampling.so"
--> FOAM Warning : 
    From function virtual void Foam::Time::readDict()
    in file db/Time/TimeIO.C at line 358
    Reading "/home/pal/OpenFOAM/pal-plus/bin/impulsewavecurrent/TestCases/WavesWithCyclic/WithVerticalBeach/system/controlDict" at line 18
    Selecting compressed binary is inefficient and ineffective, resetting to uncompressed binary

Processor 2
    Number of cells = 17201
    Number of faces shared with processor 0 = 63
    Number of faces shared with processor 1 = 85
    Number of processor patches = 2
    Number of processor faces = 148
    Number of boundary faces = 34958

Number of processor faces = 210
Max number of cells = 17322 (0.74054% above average 17194.7)
Max number of processor patches = 2 (0% above average 2)
Max number of faces between processors = 148 (5.71429% above average 140)

Time = 0

Processor 0: field transfer
--> FOAM Warning : 
    From function void* Foam::dlOpen(const Foam::fileName&, bool)
    in file POSIX.C at line 1321
    dlopen error : libwavesampling.so: cannot open shared object file: No such file or directory
--> FOAM Warning : 
    From function bool Foam::dlLibraryTable::open(const Foam::fileName&, bool)
    in file db/dynamicLibrary/dlLibraryTable/dlLibraryTable.C at line 101
    could not load "libwavesampling.so"
--> FOAM Warning : 
    From function virtual void Foam::Time::readDict()
    in file db/Time/TimeIO.C at line 358
    Reading "/home/pal/OpenFOAM/pal-plus/bin/impulsewavecurrent/TestCases/WavesWithCyclic/WithVerticalBeach/system/controlDict" at line 18
    Selecting compressed binary is inefficient and ineffective, resetting to uncompressed binary
Processor 1: field transfer
--> FOAM Warning : 
    From function void* Foam::dlOpen(const Foam::fileName&, bool)
    in file POSIX.C at line 1321
    dlopen error : libwavesampling.so: cannot open shared object file: No such file or directory
--> FOAM Warning : 
    From function bool Foam::dlLibraryTable::open(const Foam::fileName&, bool)
    in file db/dynamicLibrary/dlLibraryTable/dlLibraryTable.C at line 101
    could not load "libwavesampling.so"
--> FOAM Warning : 
    From function virtual void Foam::Time::readDict()
    in file db/Time/TimeIO.C at line 358
    Reading "/home/pal/OpenFOAM/pal-plus/bin/impulsewavecurrent/TestCases/WavesWithCyclic/WithVerticalBeach/system/controlDict" at line 18
    Selecting compressed binary is inefficient and ineffective, resetting to uncompressed binary
Processor 2: field transfer
--> FOAM Warning : 
    From function void* Foam::dlOpen(const Foam::fileName&, bool)
    in file POSIX.C at line 1321
    dlopen error : libwavesampling.so: cannot open shared object file: No such file or directory
--> FOAM Warning : 
    From function bool Foam::dlLibraryTable::open(const Foam::fileName&, bool)
    in file db/dynamicLibrary/dlLibraryTable/dlLibraryTable.C at line 101
    could not load "libwavesampling.so"
--> FOAM Warning : 
    From function virtual void Foam::Time::readDict()
    in file db/Time/TimeIO.C at line 358
    Reading "/home/pal/OpenFOAM/pal-plus/bin/impulsewavecurrent/TestCases/WavesWithCyclic/WithVerticalBeach/system/controlDict" at line 18
    Selecting compressed binary is inefficient and ineffective, resetting to uncompressed binary

End

/*---------------------------------------------------------------------------*\
| =========                 |                                                 |
| \\      /  F ield         | OpenFOAM: The Open Source CFD Toolbox           |
|  \\    /   O peration     | Version:  plus                                  |
|   \\  /    A nd           | Web:      www.OpenFOAM.com                      |
|    \\/     M anipulation  |                                                 |
\*---------------------------------------------------------------------------*/
Build  : plus-6355554d1aee
Arch   : "LSB;label=32;scalar=64"
Exec   : renumberMesh -parallel -overwrite
Date   : Dec 05 2017
Time   : 14:46:18
Host   : "stokes"
PID    : 22255
Case   : /home/pal/OpenFOAM/pal-plus/bin/impulsewavecurrent/TestCases/WavesWithCyclic/WithVerticalBeach
nProcs : 3
Slaves : 
2
(
"stokes.22256"
"stokes.22257"
)

Pstream initialized with:
    floatTransfer      : 0
    nProcsSimpleSum    : 0
    commsType          : nonBlocking
    polling iterations : 0
sigFpe : Enabling floating point exception trapping (FOAM_SIGFPE).
fileModificationChecking : Monitoring run-time modified files using timeStampMaster (fileModificationSkew 10)
allowSystemOperations : Allowing user-supplied system call operations

// * * * * * * * * * * * * * * * * * * * * * * * * * * * * * * * * * * * * * //
Create time

--> FOAM Warning : 
    From function void* Foam::dlOpen(const Foam::fileName&, bool)
    in file POSIX.C at line 1321
    dlopen error : libwavesampling.so: cannot open shared object file: No such file or directory
--> FOAM Warning : 
    From function bool Foam::dlLibraryTable::open(const Foam::fileName&, bool)
    in file db/dynamicLibrary/dlLibraryTable/dlLibraryTable.C at line 101
    could not load "libwavesampling.so"
--> FOAM Warning : 
    From function virtual void Foam::Time::readDict()
    in file db/Time/TimeIO.C at line 358
    Reading "/home/pal/OpenFOAM/pal-plus/bin/impulsewavecurrent/TestCases/WavesWithCyclic/WithVerticalBeach/system/controlDict" at line 18
    Selecting compressed binary is inefficient and ineffective, resetting to uncompressed binary
Create mesh for time = 0

Mesh size: 51584
Before renumbering :
    band           : 9084
    profile        : 1.23621e+08

Using default renumberMethod.

Selecting renumberMethod CuthillMcKee

Reading volScalarField alpha.water
Reading volScalarField alpha.water.orig
Reading volScalarField p_rgh
Reading volScalarField relax
Reading volScalarField sand
Reading volVectorField U
Reading volVectorField Uana
Reading cellSet refinedCells
Reading cellSet surface1
Reading cellSet surface2

Renumbering processor cell decomposition map cellProcAddressing
Renumbering processor face decomposition map faceProcAddressing
Renumbering processor point decomposition map pointProcAddressing
After renumbering :
    band           : 63
    profile        : 2.9948e+06

Writing mesh to "constant"
End

Finalising parallel run
